/*---------------------------------------------------------------------------*\
| =========                 |                                                 |
| \\      /  F ield         | OpenFOAM: The Open Source CFD Toolbox           |
|  \\    /   O peration     | Version:  2306                                  |
|   \\  /    A nd           | Website:  www.openfoam.com                      |
|    \\/     M anipulation  |                                                 |
\*---------------------------------------------------------------------------*/
Build  : _fbf00d6bf2-20230626 OPENFOAM=2306 version=v2306
Arch   : "LSB;label=32;scalar=64"
Exec   : buoyantBoussinesqPimpleFoam
Date   : Dec 19 2023
Time   : 10:23:39
Host   : DESKTOP-93LU2LF
PID    : 15801
I/O    : uncollated
Case   : /home/felipe/openfoam_intro_ES/casos/tuboConv_grande
nProcs : 1
trapFpe: Floating point exception trapping enabled (FOAM_SIGFPE).
fileModificationChecking : Monitoring run-time modified files using timeStampMaster (fileModificationSkew 5, maxFileModificationPolls 20)
allowSystemOperations : Allowing user-supplied system call operations

// * * * * * * * * * * * * * * * * * * * * * * * * * * * * * * * * * * * * * //
Create time

Create mesh for time = 0


PIMPLE: Operating solver in PISO mode

Reading thermophysical properties

Reading field T

Reading field p_rgh

Reading field U

Reading/calculating face flux field phi

Selecting incompressible transport model Newtonian
Creating turbulence model

Selecting turbulence model type RAS
Selecting RAS turbulence model kEpsilon
RAS
{
    RASModel        kEpsilon;
    turbulence      on;
    printCoeffs     on;
    Cmu             0.09;
    C1              1.44;
    C2              1.92;
    C3              0;
    sigmak          1;
    sigmaEps        1.3;
}

Reading field alphat


Reading g

Reading hRef
Calculating field g.h

No MRF models present

Radiation model not active: radiationProperties not found
Selecting radiationModel none
No finite volume options present
Courant Number mean: 0.00019685 max: 0.00019685
surfaceFieldValue dTdn:
    operation     = areaNormalIntegrate



Starting time loop

Courant Number mean: 0.00019685 max: 0.00019685
deltaT = 1.20005e-05
Time = 1.20005e-05

PIMPLE: iteration 1
DILUPBiCGStab:  Solving for T, Initial residual = 1, Final residual = 8.58178e-08, No Iterations 3
DICPCG:  Solving for p_rgh, Initial residual = 1, Final residual = 0.0072472, No Iterations 209
time step continuity errors : sum local = 1.03083e-13, global = -3.4933e-23, cumulative = -3.4933e-23
DICPCG:  Solving for p_rgh, Initial residual = 0.0844988, Final residual = 9.78346e-09, No Iterations 233
time step continuity errors : sum local = 5.15667e-15, global = -5.15559e-15, cumulative = -5.15559e-15
DILUPBiCGStab:  Solving for epsilon, Initial residual = 0.0590765, Final residual = 5.43171e-07, No Iterations 2
DILUPBiCGStab:  Solving for k, Initial residual = 1, Final residual = 9.90165e-07, No Iterations 2
ExecutionTime = 0.67 s  ClockTime = 0 s

Courant Number mean: 0.00023623 max: 0.000236239
deltaT = 1.44013e-05
Time = 2.64017e-05

PIMPLE: iteration 1
DILUPBiCGStab:  Solving for T, Initial residual = 0.306272, Final residual = 1.42766e-07, No Iterations 1
DICPCG:  Solving for p_rgh, Initial residual = 0.997326, Final residual = 0.00733257, No Iterations 5
time step continuity errors : sum local = 5.52057e-10, global = -1.30397e-13, cumulative = -1.35553e-13
DICPCG:  Solving for p_rgh, Initial residual = 0.0061756, Final residual = 9.20281e-09, No Iterations 235
time step continuity errors : sum local = 7.06161e-13, global = -7.04888e-13, cumulative = -8.40441e-13
DILUPBiCGStab:  Solving for epsilon, Initial residual = 0.00018897, Final residual = 1.79938e-08, No Iterations 1
DILUPBiCGStab:  Solving for k, Initial residual = 0.322114, Final residual = 8.96186e-07, No Iterations 1
ExecutionTime = 1 s  ClockTime = 1 s

Courant Number mean: 0.000283505 max: 0.000289298
deltaT = 1.72815e-05
Time = 4.36833e-05

PIMPLE: iteration 1
DILUPBiCGStab:  Solving for T, Initial residual = 0.17874, Final residual = 1.10666e-07, No Iterations 1
DICPCG:  Solving for p_rgh, Initial residual = 0.216612, Final residual = 0.00137469, No Iterations 4
time step continuity errors : sum local = 3.43119e-10, global = -1.33596e-12, cumulative = -2.1764e-12
DICPCG:  Solving for p_rgh, Initial residual = 0.00267184, Final residual = 7.49145e-09, No Iterations 232
time step continuity errors : sum local = 2.55785e-12, global = -2.55559e-12, cumulative = -4.73199e-12
DILUPBiCGStab:  Solving for epsilon, Initial residual = 0.000224469, Final residual = 2.78397e-08, No Iterations 1
DILUPBiCGStab:  Solving for k, Initial residual = 0.197716, Final residual = 9.3769e-07, No Iterations 1
ExecutionTime = 1.38 s  ClockTime = 1 s

Courant Number mean: 0.000340227 max: 0.000355961
deltaT = 2.07378e-05
Time = 6.44211e-05

PIMPLE: iteration 1
DILUPBiCGStab:  Solving for T, Initial residual = 0.130597, Final residual = 1.14889e-07, No Iterations 1
DICPCG:  Solving for p_rgh, Initial residual = 0.096412, Final residual = 0.000790719, No Iterations 4
time step continuity errors : sum local = 3.7608e-10, global = -4.20697e-12, cumulative = -8.93896e-12
DICPCG:  Solving for p_rgh, Initial residual = 0.0021883, Final residual = 8.33363e-09, No Iterations 232
time step continuity errors : sum local = 6.48208e-12, global = -6.47779e-12, cumulative = -1.54168e-11
DILUPBiCGStab:  Solving for epsilon, Initial residual = 0.000266046, Final residual = 4.55173e-08, No Iterations 1
DILUPBiCGStab:  Solving for k, Initial residual = 0.149377, Final residual = 4.55704e-08, No Iterations 2
ExecutionTime = 1.74 s  ClockTime = 2 s

Courant Number mean: 0.000408299 max: 0.000439024
deltaT = 2.48844e-05
Time = 8.93055e-05

PIMPLE: iteration 1
DILUPBiCGStab:  Solving for T, Initial residual = 0.106638, Final residual = 1.36083e-07, No Iterations 1
DICPCG:  Solving for p_rgh, Initial residual = 0.0514014, Final residual = 0.000423987, No Iterations 5
time step continuity errors : sum local = 3.2853e-10, global = -9.93022e-12, cumulative = -2.5347e-11
DICPCG:  Solving for p_rgh, Initial residual = 0.00206308, Final residual = 9.21786e-09, No Iterations 232
time step continuity errors : sum local = 1.35017e-11, global = -1.34943e-11, cumulative = -3.88413e-11
DILUPBiCGStab:  Solving for epsilon, Initial residual = 0.000314485, Final residual = 7.6217e-08, No Iterations 1
DILUPBiCGStab:  Solving for k, Initial residual = 0.124015, Final residual = 7.27954e-08, No Iterations 2
ExecutionTime = 2.07 s  ClockTime = 2 s

Courant Number mean: 0.000489973 max: 0.000541882
deltaT = 2.98597e-05
Time = 0.000119165

PIMPLE: iteration 1
DILUPBiCGStab:  Solving for T, Initial residual = 0.0924852, Final residual = 1.73139e-07, No Iterations 1
DICPCG:  Solving for p_rgh, Initial residual = 0.0265877, Final residual = 0.000235929, No Iterations 7
time step continuity errors : sum local = 2.69826e-10, global = -1.99046e-11, cumulative = -5.87458e-11
DICPCG:  Solving for p_rgh, Initial residual = 0.00185352, Final residual = 9.18278e-09, No Iterations 234
time step continuity errors : sum local = 2.52709e-11, global = -2.52601e-11, cumulative = -8.40059e-11
DILUPBiCGStab:  Solving for epsilon, Initial residual = 0.000370601, Final residual = 1.28083e-07, No Iterations 1
DILUPBiCGStab:  Solving for k, Initial residual = 0.108541, Final residual = 1.21397e-07, No Iterations 2
ExecutionTime = 2.39 s  ClockTime = 2 s

Courant Number mean: 0.000587981 max: 0.000668847
deltaT = 3.58253e-05
Time = 0.00015499

PIMPLE: iteration 1
DILUPBiCGStab:  Solving for T, Initial residual = 0.0832599, Final residual = 2.30516e-07, No Iterations 1
DICPCG:  Solving for p_rgh, Initial residual = 0.0126453, Final residual = 0.000118154, No Iterations 12
time step continuity errors : sum local = 2.04832e-10, global = -3.63594e-11, cumulative = -1.20365e-10
DICPCG:  Solving for p_rgh, Initial residual = 0.00164489, Final residual = 7.04349e-09, No Iterations 235
time step continuity errors : sum local = 4.41157e-11, global = -4.4104e-11, cumulative = -1.64469e-10
DILUPBiCGStab:  Solving for epsilon, Initial residual = 0.000435146, Final residual = 2.14654e-07, No Iterations 1
DILUPBiCGStab:  Solving for k, Initial residual = 0.098268, Final residual = 2.06481e-07, No Iterations 2
ExecutionTime = 2.67 s  ClockTime = 2 s

Courant Number mean: 0.000705501 max: 0.000824789
deltaT = 4.29811e-05
Time = 0.000197972

PIMPLE: iteration 1
DILUPBiCGStab:  Solving for T, Initial residual = 0.0768645, Final residual = 3.17167e-07, No Iterations 1
DICPCG:  Solving for p_rgh, Initial residual = 0.00639121, Final residual = 6.28888e-05, No Iterations 109
time step continuity errors : sum local = 2.09622e-10, global = -6.24535e-11, cumulative = -2.26923e-10
DICPCG:  Solving for p_rgh, Initial residual = 0.00147022, Final residual = 7.51874e-09, No Iterations 233
time step continuity errors : sum local = 7.28318e-11, global = -7.28145e-11, cumulative = -2.99737e-10
DILUPBiCGStab:  Solving for epsilon, Initial residual = 0.000510515, Final residual = 3.59097e-07, No Iterations 1
DILUPBiCGStab:  Solving for k, Initial residual = 0.0910412, Final residual = 3.52559e-07, No Iterations 2
ExecutionTime = 3.04 s  ClockTime = 3 s

Courant Number mean: 0.00084648 max: 0.00101588
deltaT = 5.15773e-05
Time = 0.000249549

PIMPLE: iteration 1
DILUPBiCGStab:  Solving for T, Initial residual = 0.0722542, Final residual = 4.44311e-07, No Iterations 1
DICPCG:  Solving for p_rgh, Initial residual = 0.0112677, Final residual = 0.000106719, No Iterations 100
time step continuity errors : sum local = 4.42475e-10, global = -1.0219e-10, cumulative = -4.01927e-10
DICPCG:  Solving for p_rgh, Initial residual = 0.0014215, Final residual = 9.36721e-09, No Iterations 233
time step continuity errors : sum local = 1.18196e-10, global = -1.18167e-10, cumulative = -5.20095e-10
DILUPBiCGStab:  Solving for epsilon, Initial residual = 0.000597813, Final residual = 5.99879e-07, No Iterations 1
DILUPBiCGStab:  Solving for k, Initial residual = 0.0857664, Final residual = 5.96973e-07, No Iterations 2
ExecutionTime = 3.4 s  ClockTime = 3 s

Courant Number mean: 0.00101584 max: 0.00124991
deltaT = 6.18799e-05
Time = 0.000311429

PIMPLE: iteration 1
DILUPBiCGStab:  Solving for T, Initial residual = 0.0688026, Final residual = 6.24433e-07, No Iterations 1
DICPCG:  Solving for p_rgh, Initial residual = 0.0164322, Final residual = 0.000161555, No Iterations 10
time step continuity errors : sum local = 7.70379e-10, global = -1.64219e-10, cumulative = -6.84314e-10
DICPCG:  Solving for p_rgh, Initial residual = 0.00151013, Final residual = 9.23146e-09, No Iterations 233
time step continuity errors : sum local = 1.92294e-10, global = -1.92256e-10, cumulative = -8.7657e-10
DILUPBiCGStab:  Solving for epsilon, Initial residual = 0.000699096, Final residual = 9.97238e-07, No Iterations 1
DILUPBiCGStab:  Solving for k, Initial residual = 0.0817662, Final residual = 9.92093e-07, No Iterations 2
ExecutionTime = 3.67 s  ClockTime = 3 s

Courant Number mean: 0.00121884 max: 0.00153602
deltaT = 7.42283e-05
Time = 0.000385657

PIMPLE: iteration 1
DILUPBiCGStab:  Solving for T, Initial residual = 0.0661601, Final residual = 8.68228e-07, No Iterations 1
DICPCG:  Solving for p_rgh, Initial residual = 0.0204919, Final residual = 0.000180061, No Iterations 8
time step continuity errors : sum local = 1.17043e-09, global = -2.6355e-10, cumulative = -1.14012e-09
DICPCG:  Solving for p_rgh, Initial residual = 0.001683, Final residual = 7.9407e-09, No Iterations 235
time step continuity errors : sum local = 3.05374e-10, global = -3.05331e-10, cumulative = -1.44545e-09
DILUPBiCGStab:  Solving for epsilon, Initial residual = 0.000817961, Final residual = 1.08437e-07, No Iterations 2
DILUPBiCGStab:  Solving for k, Initial residual = 0.078657, Final residual = 1.68386e-07, No Iterations 2
ExecutionTime = 3.94 s  ClockTime = 4 s

Courant Number mean: 0.00146215 max: 0.00188645
deltaT = 8.91005e-05
Time = 0.000474757

PIMPLE: iteration 1
DILUPBiCGStab:  Solving for T, Initial residual = 0.06415, Final residual = 1.73357e-07, No Iterations 2
DICPCG:  Solving for p_rgh, Initial residual = 0.0245138, Final residual = 0.000198586, No Iterations 7
time step continuity errors : sum local = 1.69287e-09, global = -4.14524e-10, cumulative = -1.85997e-09
DICPCG:  Solving for p_rgh, Initial residual = 0.00180973, Final residual = 7.61191e-09, No Iterations 236
time step continuity errors : sum local = 4.77008e-10, global = -4.76955e-10, cumulative = -2.33693e-09
DILUPBiCGStab:  Solving for epsilon, Initial residual = 0.000956326, Final residual = 1.92458e-07, No Iterations 2
DILUPBiCGStab:  Solving for k, Initial residual = 0.0762458, Final residual = 3.05074e-07, No Iterations 2
ExecutionTime = 4.22 s  ClockTime = 4 s

Courant Number mean: 0.0017552 max: 0.00231896
deltaT = 0.000106901
Time = 0.000581659

PIMPLE: iteration 1
DILUPBiCGStab:  Solving for T, Initial residual = 0.0625412, Final residual = 2.63448e-07, No Iterations 2
DICPCG:  Solving for p_rgh, Initial residual = 0.027721, Final residual = 0.000250933, No Iterations 6
time step continuity errors : sum local = 2.7077e-09, global = -6.41839e-10, cumulative = -2.97877e-09
DICPCG:  Solving for p_rgh, Initial residual = 0.00190402, Final residual = 7.4648e-09, No Iterations 237
time step continuity errors : sum local = 7.34793e-10, global = -7.34727e-10, cumulative = -3.7135e-09
DILUPBiCGStab:  Solving for epsilon, Initial residual = 0.00111709, Final residual = 3.21887e-07, No Iterations 2
DILUPBiCGStab:  Solving for k, Initial residual = 0.0742679, Final residual = 5.17391e-07, No Iterations 2
ExecutionTime = 4.51 s  ClockTime = 4 s

Courant Number mean: 0.00210598 max: 0.0028517
deltaT = 0.000128282
Time = 0.000709941

PIMPLE: iteration 1
DILUPBiCGStab:  Solving for T, Initial residual = 0.0612733, Final residual = 4.06433e-07, No Iterations 2
DICPCG:  Solving for p_rgh, Initial residual = 0.0300276, Final residual = 0.000266899, No Iterations 6
time step continuity errors : sum local = 3.71232e-09, global = -9.82015e-10, cumulative = -4.69551e-09
DICPCG:  Solving for p_rgh, Initial residual = 0.00194856, Final residual = 8.6745e-09, No Iterations 237
time step continuity errors : sum local = 1.11558e-09, global = -1.11548e-09, cumulative = -5.81099e-09
DILUPBiCGStab:  Solving for epsilon, Initial residual = 0.00130492, Final residual = 5.10399e-07, No Iterations 2
DILUPBiCGStab:  Solving for k, Initial residual = 0.0726568, Final residual = 8.30573e-07, No Iterations 2
ExecutionTime = 4.8 s  ClockTime = 5 s

Courant Number mean: 0.00252733 max: 0.00351297
deltaT = 0.000153938
Time = 0.000863879

PIMPLE: iteration 1
DILUPBiCGStab:  Solving for T, Initial residual = 0.0602573, Final residual = 6.39324e-07, No Iterations 2
DICPCG:  Solving for p_rgh, Initial residual = 0.0309428, Final residual = 0.000305989, No Iterations 6
time step continuity errors : sum local = 5.31019e-09, global = -1.48325e-09, cumulative = -7.29425e-09
DICPCG:  Solving for p_rgh, Initial residual = 0.0020303, Final residual = 9.65384e-09, No Iterations 237
time step continuity errors : sum local = 1.67455e-09, global = -1.67442e-09, cumulative = -8.96867e-09
DILUPBiCGStab:  Solving for epsilon, Initial residual = 0.00152275, Final residual = 7.74728e-07, No Iterations 2
DILUPBiCGStab:  Solving for k, Initial residual = 0.0713115, Final residual = 1.31585e-07, No Iterations 3
ExecutionTime = 5.09 s  ClockTime = 5 s

Courant Number mean: 0.00303298 max: 0.00433523
deltaT = 0.000184611
Time = 0.00104849

PIMPLE: iteration 1
DILUPBiCGStab:  Solving for T, Initial residual = 0.0594018, Final residual = 1.34309e-07, No Iterations 2
DICPCG:  Solving for p_rgh, Initial residual = 0.030705, Final residual = 0.000300409, No Iterations 7
time step continuity errors : sum local = 6.70034e-09, global = -2.21638e-09, cumulative = -1.1185e-08
DICPCG:  Solving for p_rgh, Initial residual = 0.00217133, Final residual = 9.45638e-09, No Iterations 237
time step continuity errors : sum local = 2.48282e-09, global = -2.48266e-09, cumulative = -1.36677e-08
DILUPBiCGStab:  Solving for epsilon, Initial residual = 0.00177327, Final residual = 1.60027e-07, No Iterations 2
DILUPBiCGStab:  Solving for k, Initial residual = 0.070109, Final residual = 2.01724e-07, No Iterations 3
ExecutionTime = 5.38 s  ClockTime = 5 s

Courant Number mean: 0.00363755 max: 0.00535529
deltaT = 0.000221368
Time = 0.00126986

PIMPLE: iteration 1
DILUPBiCGStab:  Solving for T, Initial residual = 0.058689, Final residual = 2.27634e-07, No Iterations 2
DICPCG:  Solving for p_rgh, Initial residual = 0.0302971, Final residual = 0.000298913, No Iterations 9
time step continuity errors : sum local = 8.55373e-09, global = -3.27743e-09, cumulative = -1.69451e-08
DICPCG:  Solving for p_rgh, Initial residual = 0.00239495, Final residual = 9.76142e-09, No Iterations 236
time step continuity errors : sum local = 3.639e-09, global = -3.6388e-09, cumulative = -2.05839e-08
DILUPBiCGStab:  Solving for epsilon, Initial residual = 0.00205892, Final residual = 2.36112e-07, No Iterations 2
DILUPBiCGStab:  Solving for k, Initial residual = 0.0690376, Final residual = 2.96343e-07, No Iterations 3
ExecutionTime = 5.66 s  ClockTime = 5 s

Courant Number mean: 0.00436211 max: 0.00662478
deltaT = 0.000265404
Time = 0.00153526

PIMPLE: iteration 1
DILUPBiCGStab:  Solving for T, Initial residual = 0.0580928, Final residual = 3.84607e-07, No Iterations 2
DICPCG:  Solving for p_rgh, Initial residual = 0.0299696, Final residual = 0.000297964, No Iterations 103
time step continuity errors : sum local = 1.1837e-08, global = -4.79714e-09, cumulative = -2.53811e-08
DICPCG:  Solving for p_rgh, Initial residual = 0.00279743, Final residual = 9.87051e-09, No Iterations 238
time step continuity errors : sum local = 5.24229e-09, global = -5.24204e-09, cumulative = -3.06231e-08
DILUPBiCGStab:  Solving for epsilon, Initial residual = 0.00238549, Final residual = 3.38809e-07, No Iterations 2
DILUPBiCGStab:  Solving for k, Initial residual = 0.0680705, Final residual = 4.21597e-07, No Iterations 3
ExecutionTime = 6.01 s  ClockTime = 6 s

Courant Number mean: 0.0052302 max: 0.0082034
deltaT = 0.000318656
Time = 0.00185392

PIMPLE: iteration 1
DILUPBiCGStab:  Solving for T, Initial residual = 0.0576798, Final residual = 6.49193e-07, No Iterations 2
DICPCG:  Solving for p_rgh, Initial residual = 0.0301645, Final residual = 0.000288802, No Iterations 154
time step continuity errors : sum local = 1.50031e-08, global = -6.93204e-09, cumulative = -3.75551e-08
DICPCG:  Solving for p_rgh, Initial residual = 0.00303738, Final residual = 9.40657e-09, No Iterations 239
time step continuity errors : sum local = 7.59145e-09, global = -7.59116e-09, cumulative = -4.51463e-08
DILUPBiCGStab:  Solving for epsilon, Initial residual = 0.00276322, Final residual = 4.80965e-07, No Iterations 2
DILUPBiCGStab:  Solving for k, Initial residual = 0.0672613, Final residual = 5.91308e-07, No Iterations 3
ExecutionTime = 6.43 s  ClockTime = 6 s

Courant Number mean: 0.00628004 max: 0.01018
deltaT = 0.000381891
Time = 0.00223581

PIMPLE: iteration 1
DILUPBiCGStab:  Solving for T, Initial residual = 0.0572435, Final residual = 1.67704e-07, No Iterations 3
DICPCG:  Solving for p_rgh, Initial residual = 0.0300477, Final residual = 0.000295409, No Iterations 171
time step continuity errors : sum local = 1.95778e-08, global = -1.00189e-08, cumulative = -5.51652e-08
DICPCG:  Solving for p_rgh, Initial residual = 0.0032936, Final residual = 6.95266e-09, No Iterations 240
time step continuity errors : sum local = 1.09201e-08, global = -1.09198e-08, cumulative = -6.6085e-08
DILUPBiCGStab:  Solving for epsilon, Initial residual = 0.00319164, Final residual = 6.685e-07, No Iterations 2
DILUPBiCGStab:  Solving for k, Initial residual = 0.0663859, Final residual = 8.05129e-07, No Iterations 3
ExecutionTime = 6.85 s  ClockTime = 7 s

Courant Number mean: 0.00752674 max: 0.0126473
deltaT = 0.000458987
Time = 0.0026948

PIMPLE: iteration 1
DILUPBiCGStab:  Solving for T, Initial residual = 0.057037, Final residual = 2.94777e-07, No Iterations 3
DICPCG:  Solving for p_rgh, Initial residual = 0.0311093, Final residual = 0.000293055, No Iterations 209
time step continuity errors : sum local = 2.81573e-08, global = -1.44528e-08, cumulative = -8.05378e-08
DICPCG:  Solving for p_rgh, Initial residual = 0.00359541, Final residual = 8.10751e-09, No Iterations 241
time step continuity errors : sum local = 1.57423e-08, global = -1.57419e-08, cumulative = -9.62797e-08
DILUPBiCGStab:  Solving for epsilon, Initial residual = 0.0037566, Final residual = 9.28022e-07, No Iterations 2
DILUPBiCGStab:  Solving for k, Initial residual = 0.065752, Final residual = 1.64532e-07, No Iterations 3
ExecutionTime = 7.29 s  ClockTime = 7 s

Courant Number mean: 0.00904669 max: 0.0157974
deltaT = 0.000549747
Time = 0.00324454

PIMPLE: iteration 1
DILUPBiCGStab:  Solving for T, Initial residual = 0.056693, Final residual = 5.01127e-07, No Iterations 3
DICPCG:  Solving for p_rgh, Initial residual = 0.0306076, Final residual = 0.000271261, No Iterations 210
time step continuity errors : sum local = 3.6005e-08, global = -2.07423e-08, cumulative = -1.17022e-07
DICPCG:  Solving for p_rgh, Initial residual = 0.00376643, Final residual = 8.44952e-09, No Iterations 241
time step continuity errors : sum local = 2.25661e-08, global = -2.25656e-08, cumulative = -1.39588e-07
DILUPBiCGStab:  Solving for epsilon, Initial residual = 0.00451151, Final residual = 1.3174e-07, No Iterations 3
DILUPBiCGStab:  Solving for k, Initial residual = 0.0649505, Final residual = 2.33263e-07, No Iterations 3
ExecutionTime = 7.74 s  ClockTime = 8 s

Courant Number mean: 0.010836 max: 0.0196262
deltaT = 0.0006582
Time = 0.00390274

PIMPLE: iteration 1
DILUPBiCGStab:  Solving for T, Initial residual = 0.0564018, Final residual = 8.39294e-07, No Iterations 3
DICPCG:  Solving for p_rgh, Initial residual = 0.0302237, Final residual = 0.000266488, No Iterations 210
time step continuity errors : sum local = 4.76926e-08, global = -2.96706e-08, cumulative = -1.69258e-07
DICPCG:  Solving for p_rgh, Initial residual = 0.00392427, Final residual = 8.14491e-09, No Iterations 241
time step continuity errors : sum local = 3.22415e-08, global = -3.2241e-08, cumulative = -2.01499e-07
DILUPBiCGStab:  Solving for epsilon, Initial residual = 0.0054381, Final residual = 1.76761e-07, No Iterations 3
DILUPBiCGStab:  Solving for k, Initial residual = 0.0642191, Final residual = 3.24912e-07, No Iterations 3
ExecutionTime = 8.16 s  ClockTime = 8 s

Courant Number mean: 0.012974 max: 0.024307
deltaT = 0.000787682
Time = 0.00469043

PIMPLE: iteration 1
DILUPBiCGStab:  Solving for T, Initial residual = 0.0561585, Final residual = 2.71767e-07, No Iterations 3
DICPCG:  Solving for p_rgh, Initial residual = 0.029346, Final residual = 0.000247625, No Iterations 210
time step continuity errors : sum local = 6.23853e-08, global = -4.22703e-08, cumulative = -2.4377e-07
DICPCG:  Solving for p_rgh, Initial residual = 0.00401035, Final residual = 8.81036e-09, No Iterations 241
time step continuity errors : sum local = 4.58634e-08, global = -4.58627e-08, cumulative = -2.89632e-07
DILUPBiCGStab:  Solving for epsilon, Initial residual = 0.0065577, Final residual = 2.35109e-07, No Iterations 3
DILUPBiCGStab:  Solving for k, Initial residual = 0.0635755, Final residual = 4.457e-07, No Iterations 3
ExecutionTime = 8.59 s  ClockTime = 8 s

Courant Number mean: 0.0155264 max: 0.0299833
deltaT = 0.000943659
Time = 0.00563408

PIMPLE: iteration 1
DILUPBiCGStab:  Solving for T, Initial residual = 0.0560446, Final residual = 4.64887e-07, No Iterations 3
DICPCG:  Solving for p_rgh, Initial residual = 0.0283088, Final residual = 0.000241399, No Iterations 210
time step continuity errors : sum local = 8.36239e-08, global = -6.00145e-08, cumulative = -3.49647e-07
DICPCG:  Solving for p_rgh, Initial residual = 0.0040372, Final residual = 7.80044e-09, No Iterations 242
time step continuity errors : sum local = 6.49701e-08, global = -6.49693e-08, cumulative = -4.14616e-07
DILUPBiCGStab:  Solving for epsilon, Initial residual = 0.0078924, Final residual = 3.1257e-07, No Iterations 3
DILUPBiCGStab:  Solving for k, Initial residual = 0.0631387, Final residual = 6.10506e-07, No Iterations 3
ExecutionTime = 9.04 s  ClockTime = 9 s

Courant Number mean: 0.0186006 max: 0.0368736
deltaT = 0.00113694
Time = 0.00677102

PIMPLE: iteration 1
DILUPBiCGStab:  Solving for T, Initial residual = 0.0562411, Final residual = 8.11529e-07, No Iterations 3
DICPCG:  Solving for p_rgh, Initial residual = 0.0266617, Final residual = 0.000253467, No Iterations 209
time step continuity errors : sum local = 1.15321e-07, global = -8.52087e-08, cumulative = -4.99825e-07
DICPCG:  Solving for p_rgh, Initial residual = 0.00400132, Final residual = 7.48448e-09, No Iterations 242
time step continuity errors : sum local = 9.19408e-08, global = -9.19399e-08, cumulative = -5.91765e-07
DILUPBiCGStab:  Solving for epsilon, Initial residual = 0.00947702, Final residual = 4.16332e-07, No Iterations 3
DILUPBiCGStab:  Solving for k, Initial residual = 0.0631829, Final residual = 8.60978e-07, No Iterations 3
ExecutionTime = 9.49 s  ClockTime = 9 s

Courant Number mean: 0.0224097 max: 0.0454121
deltaT = 0.00137101
Time = 0.00814204

PIMPLE: iteration 1
DILUPBiCGStab:  Solving for T, Initial residual = 0.0564501, Final residual = 1.93035e-07, No Iterations 4
DICPCG:  Solving for p_rgh, Initial residual = 0.0240858, Final residual = 0.000215469, No Iterations 209
time step continuity errors : sum local = 1.51428e-07, global = -1.20258e-07, cumulative = -7.12023e-07
DICPCG:  Solving for p_rgh, Initial residual = 0.00382412, Final residual = 9.72801e-09, No Iterations 241
time step continuity errors : sum local = 1.29314e-07, global = -1.29312e-07, cumulative = -8.41335e-07
DILUPBiCGStab:  Solving for epsilon, Initial residual = 0.0112562, Final residual = 5.07472e-07, No Iterations 3
DILUPBiCGStab:  Solving for k, Initial residual = 0.0634331, Final residual = 1.3981e-07, No Iterations 4
ExecutionTime = 9.94 s  ClockTime = 10 s

Courant Number mean: 0.0270219 max: 0.0557067
deltaT = 0.00164032
Time = 0.00978236

PIMPLE: iteration 1
DILUPBiCGStab:  Solving for T, Initial residual = 0.0562387, Final residual = 3.33719e-07, No Iterations 4
DICPCG:  Solving for p_rgh, Initial residual = 0.0204301, Final residual = 0.000165547, No Iterations 210
time step continuity errors : sum local = 1.96168e-07, global = -1.67183e-07, cumulative = -1.00852e-06
DICPCG:  Solving for p_rgh, Initial residual = 0.00356006, Final residual = 9.45985e-09, No Iterations 241
time step continuity errors : sum local = 1.79063e-07, global = -1.79062e-07, cumulative = -1.18758e-06
DILUPBiCGStab:  Solving for epsilon, Initial residual = 0.0131205, Final residual = 5.51408e-07, No Iterations 3
DILUPBiCGStab:  Solving for k, Initial residual = 0.063417, Final residual = 2.11476e-07, No Iterations 4
ExecutionTime = 10.39 s  ClockTime = 10 s

Courant Number mean: 0.0323271 max: 0.0674369
deltaT = 0.00196125
Time = 0.0117436

PIMPLE: iteration 1
DILUPBiCGStab:  Solving for T, Initial residual = 0.0560248, Final residual = 5.55869e-07, No Iterations 4
DICPCG:  Solving for p_rgh, Initial residual = 0.0171209, Final residual = 0.00012936, No Iterations 211
time step continuity errors : sum local = 2.57918e-07, global = -2.30414e-07, cumulative = -1.41799e-06
DICPCG:  Solving for p_rgh, Initial residual = 0.00366123, Final residual = 8.21187e-09, No Iterations 241
time step continuity errors : sum local = 2.4575e-07, global = -2.45748e-07, cumulative = -1.66374e-06
DILUPBiCGStab:  Solving for epsilon, Initial residual = 0.0151585, Final residual = 6.28141e-07, No Iterations 3
DILUPBiCGStab:  Solving for k, Initial residual = 0.0636966, Final residual = 3.25573e-07, No Iterations 4
ExecutionTime = 10.84 s  ClockTime = 11 s

Courant Number mean: 0.038648 max: 0.0812297
deltaT = 0.00238531
Time = 0.0141289

PIMPLE: iteration 1
DILUPBiCGStab:  Solving for T, Initial residual = 0.0566031, Final residual = 9.78878e-07, No Iterations 4
DICPCG:  Solving for p_rgh, Initial residual = 0.0151007, Final residual = 0.000122405, No Iterations 211
time step continuity errors : sum local = 3.52565e-07, global = -3.2023e-07, cumulative = -1.98397e-06
DICPCG:  Solving for p_rgh, Initial residual = 0.00410644, Final residual = 9.32202e-09, No Iterations 240
time step continuity errors : sum local = 3.40112e-07, global = -3.40109e-07, cumulative = -2.32408e-06
DILUPBiCGStab:  Solving for epsilon, Initial residual = 0.017606, Final residual = 8.02374e-07, No Iterations 3
DILUPBiCGStab:  Solving for k, Initial residual = 0.0651738, Final residual = 5.39898e-07, No Iterations 4
ExecutionTime = 11.29 s  ClockTime = 11 s

Courant Number mean: 0.0469986 max: 0.0992396
deltaT = 0.00286237
Time = 0.0169913

PIMPLE: iteration 1
DILUPBiCGStab:  Solving for T, Initial residual = 0.0565461, Final residual = 2.41831e-07, No Iterations 4
DICPCG:  Solving for p_rgh, Initial residual = 0.0118799, Final residual = 0.000107543, No Iterations 211
time step continuity errors : sum local = 4.70077e-07, global = -4.3518e-07, cumulative = -2.75926e-06
DICPCG:  Solving for p_rgh, Initial residual = 0.00443589, Final residual = 6.9354e-09, No Iterations 240
time step continuity errors : sum local = 4.60199e-07, global = -4.60197e-07, cumulative = -3.21946e-06
DILUPBiCGStab:  Solving for epsilon, Initial residual = 0.020306, Final residual = 8.64194e-07, No Iterations 3
DILUPBiCGStab:  Solving for k, Initial residual = 0.0661555, Final residual = 8.22334e-07, No Iterations 4
ExecutionTime = 11.88 s  ClockTime = 12 s

Courant Number mean: 0.0563906 max: 0.119265
deltaT = 0.0034587
Time = 0.02045

PIMPLE: iteration 1
DILUPBiCGStab:  Solving for T, Initial residual = 0.0569283, Final residual = 4.20113e-07, No Iterations 4
DICPCG:  Solving for p_rgh, Initial residual = 0.011406, Final residual = 8.96839e-05, No Iterations 211
time step continuity errors : sum local = 6.26062e-07, global = -5.8989e-07, cumulative = -3.80935e-06
DICPCG:  Solving for p_rgh, Initial residual = 0.00469788, Final residual = 7.12278e-09, No Iterations 239
time step continuity errors : sum local = 6.20805e-07, global = -6.20802e-07, cumulative = -4.43015e-06
DILUPBiCGStab:  Solving for epsilon, Initial residual = 0.0228308, Final residual = 3.21664e-07, No Iterations 3
DILUPBiCGStab:  Solving for k, Initial residual = 0.0676615, Final residual = 7.67994e-07, No Iterations 4
ExecutionTime = 12.5 s  ClockTime = 12 s

Courant Number mean: 0.0681286 max: 0.144194
deltaT = 0.00418684
Time = 0.0246368

PIMPLE: iteration 1
DILUPBiCGStab:  Solving for T, Initial residual = 0.0574203, Final residual = 7.56165e-07, No Iterations 4
DICPCG:  Solving for p_rgh, Initial residual = 0.0114483, Final residual = 9.97964e-05, No Iterations 210
time step continuity errors : sum local = 8.42989e-07, global = -7.92917e-07, cumulative = -5.22307e-06
DICPCG:  Solving for p_rgh, Initial residual = 0.00482048, Final residual = 7.29287e-09, No Iterations 238
time step continuity errors : sum local = 8.30398e-07, global = -8.30394e-07, cumulative = -6.05346e-06
DILUPBiCGStab:  Solving for epsilon, Initial residual = 0.0250902, Final residual = 2.59978e-07, No Iterations 3
DILUPBiCGStab:  Solving for k, Initial residual = 0.069322, Final residual = 3.44627e-07, No Iterations 5
ExecutionTime = 12.97 s  ClockTime = 13 s

Courant Number mean: 0.0824593 max: 0.174634
deltaT = 0.00502421
Time = 0.029661

PIMPLE: iteration 1
DILUPBiCGStab:  Solving for T, Initial residual = 0.0574822, Final residual = 3.91455e-07, No Iterations 5
DICPCG:  Solving for p_rgh, Initial residual = 0.0114285, Final residual = 0.000110931, No Iterations 209
time step continuity errors : sum local = 1.11405e-06, global = -1.0456e-06, cumulative = -7.09907e-06
DICPCG:  Solving for p_rgh, Initial residual = 0.00469437, Final residual = 7.31573e-09, No Iterations 237
time step continuity errors : sum local = 1.08968e-06, global = -1.08968e-06, cumulative = -8.18874e-06
DILUPBiCGStab:  Solving for epsilon, Initial residual = 0.0271928, Final residual = 1.88737e-07, No Iterations 4
DILUPBiCGStab:  Solving for k, Initial residual = 0.0705069, Final residual = 5.57469e-07, No Iterations 5
ExecutionTime = 13.48 s  ClockTime = 13 s

Courant Number mean: 0.0989366 max: 0.209712
deltaT = 0.00586158
Time = 0.0355226

PIMPLE: iteration 1
DILUPBiCGStab:  Solving for T, Initial residual = 0.0564133, Final residual = 7.07512e-07, No Iterations 5
DICPCG:  Solving for p_rgh, Initial residual = 0.0103552, Final residual = 8.98685e-05, No Iterations 209
time step continuity errors : sum local = 1.39261e-06, global = -1.32666e-06, cumulative = -9.51541e-06
DICPCG:  Solving for p_rgh, Initial residual = 0.00449757, Final residual = 8.01686e-09, No Iterations 236
time step continuity errors : sum local = 1.37593e-06, global = -1.37592e-06, cumulative = -1.08913e-05
DILUPBiCGStab:  Solving for epsilon, Initial residual = 0.0284674, Final residual = 6.83872e-07, No Iterations 4
DILUPBiCGStab:  Solving for k, Initial residual = 0.0702204, Final residual = 8.75661e-07, No Iterations 5
ExecutionTime = 13.98 s  ClockTime = 14 s

Courant Number mean: 0.11541 max: 0.24481
deltaT = 0.00716415
Time = 0.0426868

PIMPLE: iteration 1
DILUPBiCGStab:  Solving for T, Initial residual = 0.0572869, Final residual = 5.21737e-07, No Iterations 6
DICPCG:  Solving for p_rgh, Initial residual = 0.0129932, Final residual = 9.43147e-05, No Iterations 208
time step continuity errors : sum local = 1.83268e-06, global = -1.74572e-06, cumulative = -1.2637e-05
DICPCG:  Solving for p_rgh, Initial residual = 0.00458579, Final residual = 8.06004e-09, No Iterations 235
time step continuity errors : sum local = 1.80209e-06, global = -1.80208e-06, cumulative = -1.44391e-05
DILUPBiCGStab:  Solving for epsilon, Initial residual = 0.0303562, Final residual = 9.02659e-07, No Iterations 4
DILUPBiCGStab:  Solving for k, Initial residual = 0.0712939, Final residual = 2.70541e-07, No Iterations 5
ExecutionTime = 14.58 s  ClockTime = 14 s

Courant Number mean: 0.141038 max: 0.299908
deltaT = 0.0081876
Time = 0.0508744

PIMPLE: iteration 1
DILUPBiCGStab:  Solving for T, Initial residual = 0.0552214, Final residual = 7.99906e-07, No Iterations 6
DICPCG:  Solving for p_rgh, Initial residual = 0.00936428, Final residual = 8.07779e-05, No Iterations 208
time step continuity errors : sum local = 2.21399e-06, global = -2.12758e-06, cumulative = -1.65667e-05
DICPCG:  Solving for p_rgh, Initial residual = 0.00418439, Final residual = 9.36347e-09, No Iterations 234
time step continuity errors : sum local = 2.1876e-06, global = -2.18759e-06, cumulative = -1.87543e-05
DILUPBiCGStab:  Solving for epsilon, Initial residual = 0.0317997, Final residual = 7.58451e-07, No Iterations 4
DILUPBiCGStab:  Solving for k, Initial residual = 0.0687731, Final residual = 3.70025e-07, No Iterations 5
ExecutionTime = 15.34 s  ClockTime = 15 s

Courant Number mean: 0.161167 max: 0.34319
deltaT = 0.00982512
Time = 0.0606995

PIMPLE: iteration 1
DILUPBiCGStab:  Solving for T, Initial residual = 0.054737, Final residual = 1.69223e-07, No Iterations 6
DICPCG:  Solving for p_rgh, Initial residual = 0.0114784, Final residual = 9.17941e-05, No Iterations 207
time step continuity errors : sum local = 2.8216e-06, global = -2.70079e-06, cumulative = -2.14551e-05
DICPCG:  Solving for p_rgh, Initial residual = 0.00421077, Final residual = 7.6573e-09, No Iterations 234
time step continuity errors : sum local = 2.76741e-06, global = -2.7674e-06, cumulative = -2.42225e-05
DILUPBiCGStab:  Solving for epsilon, Initial residual = 0.0349313, Final residual = 6.05863e-07, No Iterations 5
DILUPBiCGStab:  Solving for k, Initial residual = 0.0668028, Final residual = 5.77686e-07, No Iterations 5
ExecutionTime = 16.08 s  ClockTime = 16 s

Courant Number mean: 0.193379 max: 0.413396
deltaT = 0.0131002
Time = 0.0737997

PIMPLE: iteration 1
DILUPBiCGStab:  Solving for T, Initial residual = 0.056485, Final residual = 5.23785e-07, No Iterations 6
DICPCG:  Solving for p_rgh, Initial residual = 0.0151097, Final residual = 0.000118018, No Iterations 205
time step continuity errors : sum local = 3.99781e-06, global = -3.78311e-06, cumulative = -2.80056e-05
DICPCG:  Solving for p_rgh, Initial residual = 0.00466269, Final residual = 9.48258e-09, No Iterations 232
time step continuity errors : sum local = 3.86546e-06, global = -3.86544e-06, cumulative = -3.1871e-05
DILUPBiCGStab:  Solving for epsilon, Initial residual = 0.0408819, Final residual = 5.02913e-07, No Iterations 6
DILUPBiCGStab:  Solving for k, Initial residual = 0.065068, Final residual = 2.52675e-07, No Iterations 6
ExecutionTime = 17.05 s  ClockTime = 17 s

Courant Number mean: 0.257815 max: 0.55429
deltaT = 0.0131002
Time = 0.0868998

PIMPLE: iteration 1
DILUPBiCGStab:  Solving for T, Initial residual = 0.0490174, Final residual = 3.09206e-07, No Iterations 6
DICPCG:  Solving for p_rgh, Initial residual = 0.00527164, Final residual = 4.99115e-05, No Iterations 208
time step continuity errors : sum local = 4.04274e-06, global = -3.95264e-06, cumulative = -3.58237e-05
DICPCG:  Solving for p_rgh, Initial residual = 0.00339586, Final residual = 8.52872e-09, No Iterations 233
time step continuity errors : sum local = 4.03164e-06, global = -4.03163e-06, cumulative = -3.98553e-05
DILUPBiCGStab:  Solving for epsilon, Initial residual = 0.0429782, Final residual = 7.33756e-07, No Iterations 5
DILUPBiCGStab:  Solving for k, Initial residual = 0.0559337, Final residual = 2.28154e-07, No Iterations 6
ExecutionTime = 17.92 s  ClockTime = 18 s

Courant Number mean: 0.257788 max: 0.553855
deltaT = 0.0131002
Time = 0.1

PIMPLE: iteration 1
DILUPBiCGStab:  Solving for T, Initial residual = 0.0432572, Final residual = 1.8203e-07, No Iterations 6
DICPCG:  Solving for p_rgh, Initial residual = 0.00405983, Final residual = 3.15192e-05, No Iterations 210
time step continuity errors : sum local = 4.17236e-06, global = -4.11543e-06, cumulative = -4.39707e-05
DICPCG:  Solving for p_rgh, Initial residual = 0.00309524, Final residual = 7.4907e-09, No Iterations 234
time step continuity errors : sum local = 4.19156e-06, global = -4.19155e-06, cumulative = -4.81623e-05
DILUPBiCGStab:  Solving for epsilon, Initial residual = 0.0430937, Final residual = 9.45686e-07, No Iterations 5
DILUPBiCGStab:  Solving for k, Initial residual = 0.048342, Final residual = 2.20233e-07, No Iterations 6
ExecutionTime = 18.87 s  ClockTime = 19 s

    functionObjects::grad gradT writing field: gradT
surfaceFieldValue dTdn write:
    total faces   = 8000
    total area    = 0.16198

    areaNormalIntegrate(walls) of gradT = 5582.54

Courant Number mean: 0.257762 max: 0.553693
deltaT = 0.0142857
Time = 0.114286

PIMPLE: iteration 1
DILUPBiCGStab:  Solving for T, Initial residual = 0.0402691, Final residual = 2.07291e-07, No Iterations 6
DICPCG:  Solving for p_rgh, Initial residual = 0.00616638, Final residual = 4.79464e-05, No Iterations 209
time step continuity errors : sum local = 4.75238e-06, global = -4.65681e-06, cumulative = -5.28191e-05
DICPCG:  Solving for p_rgh, Initial residual = 0.00331245, Final residual = 7.64699e-09, No Iterations 234
time step continuity errors : sum local = 4.73389e-06, global = -4.73387e-06, cumulative = -5.7553e-05
DILUPBiCGStab:  Solving for epsilon, Initial residual = 0.0428977, Final residual = 4.26159e-07, No Iterations 5
DILUPBiCGStab:  Solving for k, Initial residual = 0.0427344, Final residual = 2.81858e-07, No Iterations 6
ExecutionTime = 19.4 s  ClockTime = 19 s

Courant Number mean: 0.281063 max: 0.604484
deltaT = 0.0171429
Time = 0.131429

PIMPLE: iteration 1
DILUPBiCGStab:  Solving for T, Initial residual = 0.0388986, Final residual = 4.15678e-07, No Iterations 6
DICPCG:  Solving for p_rgh, Initial residual = 0.00942898, Final residual = 8.43138e-05, No Iterations 207
time step continuity errors : sum local = 5.98196e-06, global = -5.776e-06, cumulative = -6.3329e-05
DICPCG:  Solving for p_rgh, Initial residual = 0.00376986, Final residual = 9.28124e-09, No Iterations 233
time step continuity errors : sum local = 5.86145e-06, global = -5.86143e-06, cumulative = -6.91904e-05
DILUPBiCGStab:  Solving for epsilon, Initial residual = 0.0427931, Final residual = 7.89236e-07, No Iterations 5
DILUPBiCGStab:  Solving for k, Initial residual = 0.0378228, Final residual = 4.95953e-07, No Iterations 6
ExecutionTime = 19.86 s  ClockTime = 20 s

Courant Number mean: 0.33725 max: 0.72785
deltaT = 0.0171429
Time = 0.148571

PIMPLE: iteration 1
DILUPBiCGStab:  Solving for T, Initial residual = 0.0345131, Final residual = 3.17567e-07, No Iterations 6
DICPCG:  Solving for p_rgh, Initial residual = 0.00402542, Final residual = 3.44851e-05, No Iterations 210
time step continuity errors : sum local = 6.03464e-06, global = -5.95061e-06, cumulative = -7.5141e-05
DICPCG:  Solving for p_rgh, Initial residual = 0.00307732, Final residual = 7.93214e-09, No Iterations 234
time step continuity errors : sum local = 6.03217e-06, global = -6.03215e-06, cumulative = -8.11732e-05
DILUPBiCGStab:  Solving for epsilon, Initial residual = 0.0399157, Final residual = 5.39219e-07, No Iterations 5
DILUPBiCGStab:  Solving for k, Initial residual = 0.031918, Final residual = 4.10861e-07, No Iterations 6
ExecutionTime = 20.31 s  ClockTime = 20 s

Courant Number mean: 0.337223 max: 0.727841
deltaT = 0.0171429
Time = 0.165714

PIMPLE: iteration 1
DILUPBiCGStab:  Solving for T, Initial residual = 0.0309294, Final residual = 9.18396e-07, No Iterations 6
DICPCG:  Solving for p_rgh, Initial residual = 0.00351268, Final residual = 3.00508e-05, No Iterations 211
time step continuity errors : sum local = 6.1908e-06, global = -6.11749e-06, cumulative = -8.72906e-05
DICPCG:  Solving for p_rgh, Initial residual = 0.00297545, Final residual = 6.64144e-09, No Iterations 235
time step continuity errors : sum local = 6.19571e-06, global = -6.19569e-06, cumulative = -9.34863e-05
DILUPBiCGStab:  Solving for epsilon, Initial residual = 0.0363131, Final residual = 7.7763e-07, No Iterations 5
DILUPBiCGStab:  Solving for k, Initial residual = 0.0271062, Final residual = 9.28555e-07, No Iterations 5
ExecutionTime = 20.8 s  ClockTime = 21 s

Courant Number mean: 0.337196 max: 0.727843
deltaT = 0.0171429
Time = 0.182857

PIMPLE: iteration 1
DILUPBiCGStab:  Solving for T, Initial residual = 0.0279885, Final residual = 7.5001e-07, No Iterations 6
DICPCG:  Solving for p_rgh, Initial residual = 0.00344112, Final residual = 3.28207e-05, No Iterations 212
time step continuity errors : sum local = 6.35629e-06, global = -6.27614e-06, cumulative = -9.97625e-05
DICPCG:  Solving for p_rgh, Initial residual = 0.00297266, Final residual = 8.89843e-09, No Iterations 235
time step continuity errors : sum local = 6.34947e-06, global = -6.34945e-06, cumulative = -0.000106112
DILUPBiCGStab:  Solving for epsilon, Initial residual = 0.0325018, Final residual = 5.69714e-07, No Iterations 5
DILUPBiCGStab:  Solving for k, Initial residual = 0.0231855, Final residual = 7.34278e-07, No Iterations 5
ExecutionTime = 21.29 s  ClockTime = 21 s

Courant Number mean: 0.337171 max: 0.727546
deltaT = 0.0171429
Time = 0.2

PIMPLE: iteration 1
DILUPBiCGStab:  Solving for T, Initial residual = 0.0255245, Final residual = 6.44568e-07, No Iterations 6
DICPCG:  Solving for p_rgh, Initial residual = 0.0032214, Final residual = 2.98965e-05, No Iterations 213
time step continuity errors : sum local = 6.49721e-06, global = -6.42414e-06, cumulative = -0.000112536
DICPCG:  Solving for p_rgh, Initial residual = 0.00298217, Final residual = 7.62858e-09, No Iterations 236
time step continuity errors : sum local = 6.49205e-06, global = -6.49203e-06, cumulative = -0.000119028
DILUPBiCGStab:  Solving for epsilon, Initial residual = 0.0288159, Final residual = 4.24614e-07, No Iterations 5
DILUPBiCGStab:  Solving for k, Initial residual = 0.0199552, Final residual = 6.18153e-07, No Iterations 5
ExecutionTime = 22.02 s  ClockTime = 22 s

    functionObjects::grad gradT writing field: gradT
surfaceFieldValue dTdn write:
    areaNormalIntegrate(walls) of gradT = 5567.39

Courant Number mean: 0.337147 max: 0.72753
deltaT = 0.0166667
Time = 0.216667

PIMPLE: iteration 1
DILUPBiCGStab:  Solving for T, Initial residual = 0.0231961, Final residual = 5.16452e-07, No Iterations 6
DICPCG:  Solving for p_rgh, Initial residual = 0.00410355, Final residual = 4.02442e-05, No Iterations 213
time step continuity errors : sum local = 6.47415e-06, global = -6.37875e-06, cumulative = -0.000125407
DICPCG:  Solving for p_rgh, Initial residual = 0.0031255, Final residual = 6.99759e-09, No Iterations 237
time step continuity errors : sum local = 6.43971e-06, global = -6.43969e-06, cumulative = -0.000131847
DILUPBiCGStab:  Solving for epsilon, Initial residual = 0.0252503, Final residual = 8.98579e-07, No Iterations 4
DILUPBiCGStab:  Solving for k, Initial residual = 0.0172461, Final residual = 5.09241e-07, No Iterations 5
ExecutionTime = 22.65 s  ClockTime = 22 s

Courant Number mean: 0.327761 max: 0.706963
deltaT = 0.0166667
Time = 0.233333

PIMPLE: iteration 1
DILUPBiCGStab:  Solving for T, Initial residual = 0.0214501, Final residual = 4.87544e-07, No Iterations 6
DICPCG:  Solving for p_rgh, Initial residual = 0.00330138, Final residual = 2.29609e-05, No Iterations 215
time step continuity errors : sum local = 6.55608e-06, global = -6.50161e-06, cumulative = -0.000138348
DICPCG:  Solving for p_rgh, Initial residual = 0.00304239, Final residual = 8.45535e-09, No Iterations 237
time step continuity errors : sum local = 6.55797e-06, global = -6.55795e-06, cumulative = -0.000144906
DILUPBiCGStab:  Solving for epsilon, Initial residual = 0.0222493, Final residual = 7.32307e-07, No Iterations 4
DILUPBiCGStab:  Solving for k, Initial residual = 0.0150563, Final residual = 4.47373e-07, No Iterations 5
ExecutionTime = 23.18 s  ClockTime = 23 s

Courant Number mean: 0.327742 max: 0.706951
deltaT = 0.0166667
Time = 0.25

PIMPLE: iteration 1
DILUPBiCGStab:  Solving for T, Initial residual = 0.0199262, Final residual = 4.71759e-07, No Iterations 6
DICPCG:  Solving for p_rgh, Initial residual = 0.00325095, Final residual = 2.81461e-05, No Iterations 215
time step continuity errors : sum local = 6.68187e-06, global = -6.61506e-06, cumulative = -0.000151521
DICPCG:  Solving for p_rgh, Initial residual = 0.00307066, Final residual = 7.53839e-09, No Iterations 238
time step continuity errors : sum local = 6.66715e-06, global = -6.66713e-06, cumulative = -0.000158188
DILUPBiCGStab:  Solving for epsilon, Initial residual = 0.0195724, Final residual = 6.12016e-07, No Iterations 4
DILUPBiCGStab:  Solving for k, Initial residual = 0.0132065, Final residual = 3.91692e-07, No Iterations 5
ExecutionTime = 23.66 s  ClockTime = 23 s

Courant Number mean: 0.327724 max: 0.70688
deltaT = 0.0166667
Time = 0.266667

PIMPLE: iteration 1
DILUPBiCGStab:  Solving for T, Initial residual = 0.0185831, Final residual = 9.7603e-07, No Iterations 5
DICPCG:  Solving for p_rgh, Initial residual = 0.00324223, Final residual = 2.41669e-05, No Iterations 216
time step continuity errors : sum local = 6.7775e-06, global = -6.7201e-06, cumulative = -0.000164908
DICPCG:  Solving for p_rgh, Initial residual = 0.0030905, Final residual = 9.10615e-09, No Iterations 238
time step continuity errors : sum local = 6.76859e-06, global = -6.76857e-06, cumulative = -0.000171677
DILUPBiCGStab:  Solving for epsilon, Initial residual = 0.0172098, Final residual = 5.11937e-07, No Iterations 4
DILUPBiCGStab:  Solving for k, Initial residual = 0.0116341, Final residual = 3.41737e-07, No Iterations 5
ExecutionTime = 24.14 s  ClockTime = 24 s

Courant Number mean: 0.327708 max: 0.70687
deltaT = 0.0166667
Time = 0.283333

PIMPLE: iteration 1
DILUPBiCGStab:  Solving for T, Initial residual = 0.0173916, Final residual = 8.75188e-07, No Iterations 5
DICPCG:  Solving for p_rgh, Initial residual = 0.0032527, Final residual = 2.73809e-05, No Iterations 216
time step continuity errors : sum local = 6.88307e-06, global = -6.818e-06, cumulative = -0.000178495
DICPCG:  Solving for p_rgh, Initial residual = 0.00312312, Final residual = 8.01484e-09, No Iterations 239
time step continuity errors : sum local = 6.86338e-06, global = -6.86336e-06, cumulative = -0.000185358
DILUPBiCGStab:  Solving for epsilon, Initial residual = 0.0151345, Final residual = 4.30536e-07, No Iterations 4
DILUPBiCGStab:  Solving for k, Initial residual = 0.0102914, Final residual = 8.75547e-07, No Iterations 4
ExecutionTime = 24.68 s  ClockTime = 25 s

Courant Number mean: 0.327693 max: 0.706867
deltaT = 0.0166667
Time = 0.3

PIMPLE: iteration 1
DILUPBiCGStab:  Solving for T, Initial residual = 0.0163291, Final residual = 8.13034e-07, No Iterations 5
DICPCG:  Solving for p_rgh, Initial residual = 0.00327031, Final residual = 2.39342e-05, No Iterations 217
time step continuity errors : sum local = 6.96663e-06, global = -6.90972e-06, cumulative = -0.000192268
DICPCG:  Solving for p_rgh, Initial residual = 0.0031445, Final residual = 9.31311e-09, No Iterations 239
time step continuity errors : sum local = 6.95236e-06, global = -6.95234e-06, cumulative = -0.00019922
DILUPBiCGStab:  Solving for epsilon, Initial residual = 0.0133173, Final residual = 3.66611e-07, No Iterations 4
DILUPBiCGStab:  Solving for k, Initial residual = 0.00913974, Final residual = 7.28894e-07, No Iterations 4
ExecutionTime = 25.39 s  ClockTime = 25 s

    functionObjects::grad gradT writing field: gradT
surfaceFieldValue dTdn write:
    areaNormalIntegrate(walls) of gradT = 5556.68

Courant Number mean: 0.327678 max: 0.706876
deltaT = 0.0166667
Time = 0.316667

PIMPLE: iteration 1
DILUPBiCGStab:  Solving for T, Initial residual = 0.0153767, Final residual = 7.71687e-07, No Iterations 5
DICPCG:  Solving for p_rgh, Initial residual = 0.00328698, Final residual = 2.79488e-05, No Iterations 217
time step continuity errors : sum local = 7.0625e-06, global = -6.99602e-06, cumulative = -0.000206216
DICPCG:  Solving for p_rgh, Initial residual = 0.0031749, Final residual = 7.99383e-09, No Iterations 240
time step continuity errors : sum local = 7.03625e-06, global = -7.03623e-06, cumulative = -0.000213253
DILUPBiCGStab:  Solving for epsilon, Initial residual = 0.0117298, Final residual = 3.12568e-07, No Iterations 4
DILUPBiCGStab:  Solving for k, Initial residual = 0.00814701, Final residual = 8.97301e-07, No Iterations 4
ExecutionTime = 25.9 s  ClockTime = 26 s

Courant Number mean: 0.327665 max: 0.70689
deltaT = 0.0166667
Time = 0.333333

PIMPLE: iteration 1
DILUPBiCGStab:  Solving for T, Initial residual = 0.0145187, Final residual = 7.42818e-07, No Iterations 5
DICPCG:  Solving for p_rgh, Initial residual = 0.00329941, Final residual = 3.08123e-05, No Iterations 217
time step continuity errors : sum local = 7.15086e-06, global = -7.07754e-06, cumulative = -0.00022033
DICPCG:  Solving for p_rgh, Initial residual = 0.00320279, Final residual = 8.95654e-09, No Iterations 240
time step continuity errors : sum local = 7.11562e-06, global = -7.1156e-06, cumulative = -0.000227446
DILUPBiCGStab:  Solving for epsilon, Initial residual = 0.010346, Final residual = 9.21449e-07, No Iterations 4
DILUPBiCGStab:  Solving for k, Initial residual = 0.00728755, Final residual = 7.1218e-07, No Iterations 4
ExecutionTime = 26.35 s  ClockTime = 26 s

Courant Number mean: 0.327653 max: 0.706899
deltaT = 0.0166667
Time = 0.35

PIMPLE: iteration 1
DILUPBiCGStab:  Solving for T, Initial residual = 0.0137423, Final residual = 7.22993e-07, No Iterations 5
DICPCG:  Solving for p_rgh, Initial residual = 0.00331637, Final residual = 2.57928e-05, No Iterations 218
time step continuity errors : sum local = 7.21622e-06, global = -7.15481e-06, cumulative = -0.000234601
DICPCG:  Solving for p_rgh, Initial residual = 0.00322127, Final residual = 7.452e-09, No Iterations 241
time step continuity errors : sum local = 7.191e-06, global = -7.19098e-06, cumulative = -0.000241792
DILUPBiCGStab:  Solving for epsilon, Initial residual = 0.00914076, Final residual = 7.22981e-07, No Iterations 4
DILUPBiCGStab:  Solving for k, Initial residual = 0.00654001, Final residual = 5.63352e-07, No Iterations 4
ExecutionTime = 26.81 s  ClockTime = 27 s

Courant Number mean: 0.327641 max: 0.706917
deltaT = 0.0166667
Time = 0.366667

PIMPLE: iteration 1
DILUPBiCGStab:  Solving for T, Initial residual = 0.013036, Final residual = 7.08489e-07, No Iterations 5
DICPCG:  Solving for p_rgh, Initial residual = 0.0033311, Final residual = 2.86833e-05, No Iterations 218
time step continuity errors : sum local = 7.29665e-06, global = -7.22834e-06, cumulative = -0.00024902
DICPCG:  Solving for p_rgh, Initial residual = 0.00324738, Final residual = 8.15935e-09, No Iterations 241
time step continuity errors : sum local = 7.26285e-06, global = -7.26283e-06, cumulative = -0.000256283
DILUPBiCGStab:  Solving for epsilon, Initial residual = 0.00809128, Final residual = 5.68131e-07, No Iterations 4
DILUPBiCGStab:  Solving for k, Initial residual = 0.00588687, Final residual = 4.45003e-07, No Iterations 4
ExecutionTime = 27.28 s  ClockTime = 27 s

Courant Number mean: 0.327629 max: 0.706927
deltaT = 0.0166667
Time = 0.383333

PIMPLE: iteration 1
DILUPBiCGStab:  Solving for T, Initial residual = 0.0123917, Final residual = 6.97272e-07, No Iterations 5
DICPCG:  Solving for p_rgh, Initial residual = 0.00334915, Final residual = 3.23746e-05, No Iterations 218
time step continuity errors : sum local = 7.37568e-06, global = -7.29854e-06, cumulative = -0.000263581
DICPCG:  Solving for p_rgh, Initial residual = 0.00327388, Final residual = 9.12432e-09, No Iterations 241
time step continuity errors : sum local = 7.33155e-06, global = -7.33153e-06, cumulative = -0.000270913
DILUPBiCGStab:  Solving for epsilon, Initial residual = 0.00717663, Final residual = 4.4379e-07, No Iterations 4
DILUPBiCGStab:  Solving for k, Initial residual = 0.00531463, Final residual = 3.52686e-07, No Iterations 4
ExecutionTime = 27.73 s  ClockTime = 28 s

Courant Number mean: 0.327619 max: 0.70694
deltaT = 0.0166667
Time = 0.4

PIMPLE: iteration 1
DILUPBiCGStab:  Solving for T, Initial residual = 0.011802, Final residual = 6.88151e-07, No Iterations 5
DICPCG:  Solving for p_rgh, Initial residual = 0.00336561, Final residual = 2.52802e-05, No Iterations 219
time step continuity errors : sum local = 7.42604e-06, global = -7.36578e-06, cumulative = -0.000278279
DICPCG:  Solving for p_rgh, Initial residual = 0.0032882, Final residual = 9.7002e-09, No Iterations 241
time step continuity errors : sum local = 7.39744e-06, global = -7.39742e-06, cumulative = -0.000285676
DILUPBiCGStab:  Solving for epsilon, Initial residual = 0.00637848, Final residual = 9.04089e-07, No Iterations 3
DILUPBiCGStab:  Solving for k, Initial residual = 0.00481155, Final residual = 9.16423e-07, No Iterations 3
ExecutionTime = 28.38 s  ClockTime = 28 s

    functionObjects::grad gradT writing field: gradT
surfaceFieldValue dTdn write:
    areaNormalIntegrate(walls) of gradT = 5548.13

Courant Number mean: 0.327608 max: 0.706949
deltaT = 0.0166667
Time = 0.416667

PIMPLE: iteration 1
DILUPBiCGStab:  Solving for T, Initial residual = 0.0112605, Final residual = 6.79071e-07, No Iterations 5
DICPCG:  Solving for p_rgh, Initial residual = 0.00337926, Final residual = 2.78069e-05, No Iterations 219
time step continuity errors : sum local = 7.49668e-06, global = -7.43037e-06, cumulative = -0.000293106
DICPCG:  Solving for p_rgh, Initial residual = 0.00331193, Final residual = 7.65871e-09, No Iterations 242
time step continuity errors : sum local = 7.46085e-06, global = -7.46083e-06, cumulative = -0.000300567
DILUPBiCGStab:  Solving for epsilon, Initial residual = 0.00566492, Final residual = 8.29629e-07, No Iterations 3
DILUPBiCGStab:  Solving for k, Initial residual = 0.00436763, Final residual = 9.49476e-07, No Iterations 3
ExecutionTime = 28.88 s  ClockTime = 29 s

Courant Number mean: 0.327599 max: 0.70696
deltaT = 0.0166667
Time = 0.433333

PIMPLE: iteration 1
DILUPBiCGStab:  Solving for T, Initial residual = 0.010761, Final residual = 6.69586e-07, No Iterations 5
DICPCG:  Solving for p_rgh, Initial residual = 0.00339584, Final residual = 3.03279e-05, No Iterations 219
time step continuity errors : sum local = 7.56497e-06, global = -7.49263e-06, cumulative = -0.00030806
DICPCG:  Solving for p_rgh, Initial residual = 0.0033353, Final residual = 8.13521e-09, No Iterations 242
time step continuity errors : sum local = 7.52205e-06, global = -7.52203e-06, cumulative = -0.000315582
DILUPBiCGStab:  Solving for epsilon, Initial residual = 0.00503468, Final residual = 6.81955e-07, No Iterations 3
DILUPBiCGStab:  Solving for k, Initial residual = 0.00397447, Final residual = 7.89155e-07, No Iterations 3
ExecutionTime = 29.35 s  ClockTime = 29 s

Courant Number mean: 0.327589 max: 0.70697
deltaT = 0.0166667
Time = 0.45

PIMPLE: iteration 1
DILUPBiCGStab:  Solving for T, Initial residual = 0.0102998, Final residual = 6.57993e-07, No Iterations 5
DICPCG:  Solving for p_rgh, Initial residual = 0.00341238, Final residual = 3.27901e-05, No Iterations 219
time step continuity errors : sum local = 7.63103e-06, global = -7.55279e-06, cumulative = -0.000323135
DICPCG:  Solving for p_rgh, Initial residual = 0.00335804, Final residual = 8.93193e-09, No Iterations 242
time step continuity errors : sum local = 7.58126e-06, global = -7.58124e-06, cumulative = -0.000330716
DILUPBiCGStab:  Solving for epsilon, Initial residual = 0.0044853, Final residual = 5.58411e-07, No Iterations 3
DILUPBiCGStab:  Solving for k, Initial residual = 0.00362508, Final residual = 6.49592e-07, No Iterations 3
ExecutionTime = 29.81 s  ClockTime = 30 s

Courant Number mean: 0.32758 max: 0.706979
deltaT = 0.0166667
Time = 0.466667

PIMPLE: iteration 1
DILUPBiCGStab:  Solving for T, Initial residual = 0.0098728, Final residual = 6.43791e-07, No Iterations 5
DICPCG:  Solving for p_rgh, Initial residual = 0.00342878, Final residual = 2.4955e-05, No Iterations 220
time step continuity errors : sum local = 7.67064e-06, global = -7.61107e-06, cumulative = -0.000338327
DICPCG:  Solving for p_rgh, Initial residual = 0.00336908, Final residual = 9.42057e-09, No Iterations 242
time step continuity errors : sum local = 7.63866e-06, global = -7.63864e-06, cumulative = -0.000345966
DILUPBiCGStab:  Solving for epsilon, Initial residual = 0.00400262, Final residual = 4.5548e-07, No Iterations 3
DILUPBiCGStab:  Solving for k, Initial residual = 0.00331373, Final residual = 5.33163e-07, No Iterations 3
ExecutionTime = 30.27 s  ClockTime = 30 s

Courant Number mean: 0.327571 max: 0.706988
deltaT = 0.0166667
Time = 0.483333

PIMPLE: iteration 1
DILUPBiCGStab:  Solving for T, Initial residual = 0.00947641, Final residual = 6.26682e-07, No Iterations 5
DICPCG:  Solving for p_rgh, Initial residual = 0.00344193, Final residual = 2.61362e-05, No Iterations 220
time step continuity errors : sum local = 7.73005e-06, global = -7.66764e-06, cumulative = -0.000353633
DICPCG:  Solving for p_rgh, Initial residual = 0.00338927, Final residual = 7.5057e-09, No Iterations 243
time step continuity errors : sum local = 7.69447e-06, global = -7.69445e-06, cumulative = -0.000361328
DILUPBiCGStab:  Solving for epsilon, Initial residual = 0.0035813, Final residual = 3.70473e-07, No Iterations 3
DILUPBiCGStab:  Solving for k, Initial residual = 0.00303578, Final residual = 4.3761e-07, No Iterations 3
ExecutionTime = 30.71 s  ClockTime = 31 s

Courant Number mean: 0.327562 max: 0.706997
deltaT = 0.0166667
Time = 0.5

PIMPLE: iteration 1
DILUPBiCGStab:  Solving for T, Initial residual = 0.00910769, Final residual = 6.06685e-07, No Iterations 5
DICPCG:  Solving for p_rgh, Initial residual = 0.00345767, Final residual = 2.66625e-05, No Iterations 220
time step continuity errors : sum local = 7.78639e-06, global = -7.7227e-06, cumulative = -0.00036905
DICPCG:  Solving for p_rgh, Initial residual = 0.00340849, Final residual = 7.8667e-09, No Iterations 243
time step continuity errors : sum local = 7.74882e-06, global = -7.7488e-06, cumulative = -0.000376799
DILUPBiCGStab:  Solving for epsilon, Initial residual = 0.00321247, Final residual = 3.00629e-07, No Iterations 3
DILUPBiCGStab:  Solving for k, Initial residual = 0.00278678, Final residual = 3.59571e-07, No Iterations 3
ExecutionTime = 31.36 s  ClockTime = 31 s

    functionObjects::grad gradT writing field: gradT
surfaceFieldValue dTdn write:
    areaNormalIntegrate(walls) of gradT = 5540.91

Courant Number mean: 0.327554 max: 0.707004
deltaT = 0.0166667
Time = 0.516667

PIMPLE: iteration 1
DILUPBiCGStab:  Solving for T, Initial residual = 0.0087639, Final residual = 5.83887e-07, No Iterations 5
DICPCG:  Solving for p_rgh, Initial residual = 0.00347296, Final residual = 2.80021e-05, No Iterations 220
time step continuity errors : sum local = 7.84328e-06, global = -7.77638e-06, cumulative = -0.000384576
DICPCG:  Solving for p_rgh, Initial residual = 0.0034284, Final residual = 8.28202e-09, No Iterations 243
time step continuity errors : sum local = 7.80183e-06, global = -7.80181e-06, cumulative = -0.000392377
DILUPBiCGStab:  Solving for epsilon, Initial residual = 0.00288866, Final residual = 8.54815e-07, No Iterations 2
DILUPBiCGStab:  Solving for k, Initial residual = 0.0025629, Final residual = 9.34565e-07, No Iterations 2
ExecutionTime = 31.87 s  ClockTime = 32 s

Courant Number mean: 0.327546 max: 0.707012
deltaT = 0.0166667
Time = 0.533333

PIMPLE: iteration 1
DILUPBiCGStab:  Solving for T, Initial residual = 0.00844284, Final residual = 5.58741e-07, No Iterations 5
DICPCG:  Solving for p_rgh, Initial residual = 0.00348847, Final residual = 3.21146e-05, No Iterations 220
time step continuity errors : sum local = 7.90554e-06, global = -7.82879e-06, cumulative = -0.000400206
DICPCG:  Solving for p_rgh, Initial residual = 0.00345134, Final residual = 8.27018e-09, No Iterations 243
time step continuity errors : sum local = 7.85366e-06, global = -7.85364e-06, cumulative = -0.00040806
DILUPBiCGStab:  Solving for epsilon, Initial residual = 0.00260359, Final residual = 7.10251e-07, No Iterations 2
DILUPBiCGStab:  Solving for k, Initial residual = 0.00236155, Final residual = 7.92917e-07, No Iterations 2
ExecutionTime = 32.33 s  ClockTime = 32 s

Courant Number mean: 0.327538 max: 0.707019
deltaT = 0.0166667
Time = 0.55

PIMPLE: iteration 1
DILUPBiCGStab:  Solving for T, Initial residual = 0.0081423, Final residual = 9.96072e-07, No Iterations 4
DICPCG:  Solving for p_rgh, Initial residual = 0.00350509, Final residual = 2.57986e-05, No Iterations 221
time step continuity errors : sum local = 7.94174e-06, global = -7.88006e-06, cumulative = -0.00041594
DICPCG:  Solving for p_rgh, Initial residual = 0.00346287, Final residual = 8.9842e-09, No Iterations 243
time step continuity errors : sum local = 7.90442e-06, global = -7.9044e-06, cumulative = -0.000423844
DILUPBiCGStab:  Solving for epsilon, Initial residual = 0.00235204, Final residual = 5.90064e-07, No Iterations 2
DILUPBiCGStab:  Solving for k, Initial residual = 0.00217976, Final residual = 6.71964e-07, No Iterations 2
ExecutionTime = 32.79 s  ClockTime = 33 s

Courant Number mean: 0.32753 max: 0.707026
deltaT = 0.0166667
Time = 0.566667

PIMPLE: iteration 1
DILUPBiCGStab:  Solving for T, Initial residual = 0.0078605, Final residual = 9.31328e-07, No Iterations 4
DICPCG:  Solving for p_rgh, Initial residual = 0.00351851, Final residual = 2.8933e-05, No Iterations 221
time step continuity errors : sum local = 7.99951e-06, global = -7.93032e-06, cumulative = -0.000431775
DICPCG:  Solving for p_rgh, Initial residual = 0.003484, Final residual = 9.58118e-09, No Iterations 243
time step continuity errors : sum local = 7.95423e-06, global = -7.9542e-06, cumulative = -0.000439729
DILUPBiCGStab:  Solving for epsilon, Initial residual = 0.00212946, Final residual = 4.90874e-07, No Iterations 2
DILUPBiCGStab:  Solving for k, Initial residual = 0.00201546, Final residual = 5.69926e-07, No Iterations 2
ExecutionTime = 33.24 s  ClockTime = 33 s

Courant Number mean: 0.327522 max: 0.707032
deltaT = 0.0166667
Time = 0.583333

PIMPLE: iteration 1
DILUPBiCGStab:  Solving for T, Initial residual = 0.00759573, Final residual = 8.67402e-07, No Iterations 4
DICPCG:  Solving for p_rgh, Initial residual = 0.00353454, Final residual = 3.1321e-05, No Iterations 221
time step continuity errors : sum local = 8.05458e-06, global = -7.97966e-06, cumulative = -0.000447708
DICPCG:  Solving for p_rgh, Initial residual = 0.00350426, Final residual = 7.13034e-09, No Iterations 244
time step continuity errors : sum local = 8.00313e-06, global = -8.00311e-06, cumulative = -0.000455712
DILUPBiCGStab:  Solving for epsilon, Initial residual = 0.001932, Final residual = 4.09142e-07, No Iterations 2
DILUPBiCGStab:  Solving for k, Initial residual = 0.00186665, Final residual = 4.84386e-07, No Iterations 2
ExecutionTime = 33.68 s  ClockTime = 33 s

Courant Number mean: 0.327515 max: 0.707038
deltaT = 0.0166667
Time = 0.6

PIMPLE: iteration 1
DILUPBiCGStab:  Solving for T, Initial residual = 0.00734658, Final residual = 9.24485e-07, No Iterations 4
DICPCG:  Solving for p_rgh, Initial residual = 0.00355025, Final residual = 3.4515e-05, No Iterations 221
time step continuity errors : sum local = 8.11071e-06, global = -8.02814e-06, cumulative = -0.00046374
DICPCG:  Solving for p_rgh, Initial residual = 0.00352518, Final residual = 7.91865e-09, No Iterations 244
time step continuity errors : sum local = 8.05121e-06, global = -8.05119e-06, cumulative = -0.000471791
DILUPBiCGStab:  Solving for epsilon, Initial residual = 0.0017564, Final residual = 3.41814e-07, No Iterations 2
DILUPBiCGStab:  Solving for k, Initial residual = 0.00173167, Final residual = 4.12918e-07, No Iterations 2
ExecutionTime = 34.29 s  ClockTime = 34 s

    functionObjects::grad gradT writing field: gradT
surfaceFieldValue dTdn write:
    areaNormalIntegrate(walls) of gradT = 5534.59

Courant Number mean: 0.327507 max: 0.707044
deltaT = 0.0166667
Time = 0.616667

PIMPLE: iteration 1
DILUPBiCGStab:  Solving for T, Initial residual = 0.00711187, Final residual = 8.39543e-07, No Iterations 4
DICPCG:  Solving for p_rgh, Initial residual = 0.00356608, Final residual = 2.6426e-05, No Iterations 222
time step continuity errors : sum local = 8.13906e-06, global = -8.07582e-06, cumulative = -0.000479867
DICPCG:  Solving for p_rgh, Initial residual = 0.00353327, Final residual = 8.91468e-09, No Iterations 244
time step continuity errors : sum local = 8.09848e-06, global = -8.09846e-06, cumulative = -0.000487965
DILUPBiCGStab:  Solving for epsilon, Initial residual = 0.00159985, Final residual = 9.75053e-07, No Iterations 2
DILUPBiCGStab:  Solving for k, Initial residual = 0.00160908, Final residual = 3.54452e-07, No Iterations 2
ExecutionTime = 34.81 s  ClockTime = 35 s

Courant Number mean: 0.3275 max: 0.70705
deltaT = 0.0166667
Time = 0.633333

PIMPLE: iteration 1
DILUPBiCGStab:  Solving for T, Initial residual = 0.00689035, Final residual = 7.60385e-07, No Iterations 4
DICPCG:  Solving for p_rgh, Initial residual = 0.00357838, Final residual = 2.85527e-05, No Iterations 222
time step continuity errors : sum local = 8.19108e-06, global = -8.12273e-06, cumulative = -0.000496088
DICPCG:  Solving for p_rgh, Initial residual = 0.00355233, Final residual = 9.91621e-09, No Iterations 244
time step continuity errors : sum local = 8.14506e-06, global = -8.14504e-06, cumulative = -0.000504233
DILUPBiCGStab:  Solving for epsilon, Initial residual = 0.00145998, Final residual = 8.39336e-07, No Iterations 2
DILUPBiCGStab:  Solving for k, Initial residual = 0.0014975, Final residual = 3.04278e-07, No Iterations 2
ExecutionTime = 35.25 s  ClockTime = 35 s

Courant Number mean: 0.327493 max: 0.707055
deltaT = 0.0166667
Time = 0.65

PIMPLE: iteration 1
DILUPBiCGStab:  Solving for T, Initial residual = 0.00668106, Final residual = 6.89651e-07, No Iterations 4
DICPCG:  Solving for p_rgh, Initial residual = 0.0035937, Final residual = 3.0762e-05, No Iterations 222
time step continuity errors : sum local = 8.24262e-06, global = -8.16897e-06, cumulative = -0.000512402
DICPCG:  Solving for p_rgh, Initial residual = 0.00357141, Final residual = 7.42058e-09, No Iterations 245
time step continuity errors : sum local = 8.19098e-06, global = -8.19096e-06, cumulative = -0.000520593
DILUPBiCGStab:  Solving for epsilon, Initial residual = 0.00133476, Final residual = 7.24555e-07, No Iterations 2
DILUPBiCGStab:  Solving for k, Initial residual = 0.00139574, Final residual = 2.62662e-07, No Iterations 2
ExecutionTime = 35.71 s  ClockTime = 36 s

Courant Number mean: 0.327486 max: 0.707061
deltaT = 0.0166667
Time = 0.666667

PIMPLE: iteration 1
DILUPBiCGStab:  Solving for T, Initial residual = 0.00648304, Final residual = 6.26728e-07, No Iterations 4
DICPCG:  Solving for p_rgh, Initial residual = 0.00360895, Final residual = 3.30799e-05, No Iterations 222
time step continuity errors : sum local = 8.29379e-06, global = -8.21457e-06, cumulative = -0.000528807
DICPCG:  Solving for p_rgh, Initial residual = 0.00359043, Final residual = 7.74861e-09, No Iterations 245
time step continuity errors : sum local = 8.23629e-06, global = -8.23627e-06, cumulative = -0.000537044
DILUPBiCGStab:  Solving for epsilon, Initial residual = 0.0012224, Final residual = 6.2676e-07, No Iterations 2
DILUPBiCGStab:  Solving for k, Initial residual = 0.00130275, Final residual = 8.8961e-07, No Iterations 2
ExecutionTime = 36.17 s  ClockTime = 36 s

Courant Number mean: 0.327479 max: 0.707066
deltaT = 0.0166667
Time = 0.683333

PIMPLE: iteration 1
DILUPBiCGStab:  Solving for T, Initial residual = 0.00629534, Final residual = 5.70968e-07, No Iterations 4
DICPCG:  Solving for p_rgh, Initial residual = 0.0036244, Final residual = 3.53809e-05, No Iterations 222
time step continuity errors : sum local = 8.34433e-06, global = -8.25958e-06, cumulative = -0.000545303
DICPCG:  Solving for p_rgh, Initial residual = 0.0036094, Final residual = 8.91489e-09, No Iterations 245
time step continuity errors : sum local = 8.28103e-06, global = -8.281e-06, cumulative = -0.000553584
DILUPBiCGStab:  Solving for epsilon, Initial residual = 0.0011214, Final residual = 5.4221e-07, No Iterations 2
DILUPBiCGStab:  Solving for k, Initial residual = 0.00121762, Final residual = 7.8768e-07, No Iterations 2
ExecutionTime = 36.63 s  ClockTime = 36 s

Courant Number mean: 0.327472 max: 0.70707
deltaT = 0.0166667
Time = 0.7

PIMPLE: iteration 1
DILUPBiCGStab:  Solving for T, Initial residual = 0.00611738, Final residual = 5.2105e-07, No Iterations 4
DICPCG:  Solving for p_rgh, Initial residual = 0.00363953, Final residual = 2.61305e-05, No Iterations 223
time step continuity errors : sum local = 8.36663e-06, global = -8.30403e-06, cumulative = -0.000561888
DICPCG:  Solving for p_rgh, Initial residual = 0.00361553, Final residual = 9.664e-09, No Iterations 245
time step continuity errors : sum local = 8.32514e-06, global = -8.32512e-06, cumulative = -0.000570213
DILUPBiCGStab:  Solving for epsilon, Initial residual = 0.00103036, Final residual = 4.70231e-07, No Iterations 2
DILUPBiCGStab:  Solving for k, Initial residual = 0.00113955, Final residual = 6.98703e-07, No Iterations 2
ExecutionTime = 37.31 s  ClockTime = 37 s

    functionObjects::grad gradT writing field: gradT
surfaceFieldValue dTdn write:
    areaNormalIntegrate(walls) of gradT = 5528.92

Courant Number mean: 0.327465 max: 0.707075
deltaT = 0.0166667
Time = 0.716667

PIMPLE: iteration 1
DILUPBiCGStab:  Solving for T, Initial residual = 0.00594842, Final residual = 4.7629e-07, No Iterations 4
DICPCG:  Solving for p_rgh, Initial residual = 0.00365133, Final residual = 2.78683e-05, No Iterations 223
time step continuity errors : sum local = 8.41467e-06, global = -8.34788e-06, cumulative = -0.000578561
DICPCG:  Solving for p_rgh, Initial residual = 0.00363329, Final residual = 6.97821e-09, No Iterations 246
time step continuity errors : sum local = 8.36876e-06, global = -8.36874e-06, cumulative = -0.00058693
DILUPBiCGStab:  Solving for epsilon, Initial residual = 0.000948174, Final residual = 4.09343e-07, No Iterations 2
DILUPBiCGStab:  Solving for k, Initial residual = 0.00106784, Final residual = 6.21087e-07, No Iterations 2
ExecutionTime = 37.81 s  ClockTime = 38 s

Courant Number mean: 0.327459 max: 0.70708
deltaT = 0.0166667
Time = 0.733333

PIMPLE: iteration 1
DILUPBiCGStab:  Solving for T, Initial residual = 0.00578782, Final residual = 4.36081e-07, No Iterations 4
DICPCG:  Solving for p_rgh, Initial residual = 0.00366627, Final residual = 2.95806e-05, No Iterations 223
time step continuity errors : sum local = 8.46216e-06, global = -8.39126e-06, cumulative = -0.000595321
DICPCG:  Solving for p_rgh, Initial residual = 0.00365122, Final residual = 7.51849e-09, No Iterations 246
time step continuity errors : sum local = 8.41191e-06, global = -8.41189e-06, cumulative = -0.000603733
DILUPBiCGStab:  Solving for epsilon, Initial residual = 0.000873854, Final residual = 3.57733e-07, No Iterations 2
DILUPBiCGStab:  Solving for k, Initial residual = 0.00100187, Final residual = 5.53478e-07, No Iterations 2
ExecutionTime = 38.24 s  ClockTime = 38 s

Courant Number mean: 0.327452 max: 0.707084
deltaT = 0.0166667
Time = 0.75

PIMPLE: iteration 1
DILUPBiCGStab:  Solving for T, Initial residual = 0.00563501, Final residual = 3.99904e-07, No Iterations 4
DICPCG:  Solving for p_rgh, Initial residual = 0.00368101, Final residual = 3.12424e-05, No Iterations 223
time step continuity errors : sum local = 8.50908e-06, global = -8.43417e-06, cumulative = -0.000612167
DICPCG:  Solving for p_rgh, Initial residual = 0.00366883, Final residual = 8.05255e-09, No Iterations 246
time step continuity errors : sum local = 8.45461e-06, global = -8.45459e-06, cumulative = -0.000620622
DILUPBiCGStab:  Solving for epsilon, Initial residual = 0.000806533, Final residual = 3.13693e-07, No Iterations 2
DILUPBiCGStab:  Solving for k, Initial residual = 0.000941083, Final residual = 4.9445e-07, No Iterations 2
ExecutionTime = 38.69 s  ClockTime = 39 s

Courant Number mean: 0.327446 max: 0.707088
deltaT = 0.0166667
Time = 0.766667

PIMPLE: iteration 1
DILUPBiCGStab:  Solving for T, Initial residual = 0.00548947, Final residual = 9.96068e-07, No Iterations 3
DICPCG:  Solving for p_rgh, Initial residual = 0.00369575, Final residual = 3.31315e-05, No Iterations 223
time step continuity errors : sum local = 8.5561e-06, global = -8.47665e-06, cumulative = -0.000629099
DICPCG:  Solving for p_rgh, Initial residual = 0.00368673, Final residual = 8.62916e-09, No Iterations 246
time step continuity errors : sum local = 8.49688e-06, global = -8.49686e-06, cumulative = -0.000637596
DILUPBiCGStab:  Solving for epsilon, Initial residual = 0.000745446, Final residual = 2.76141e-07, No Iterations 2
DILUPBiCGStab:  Solving for k, Initial residual = 0.000884982, Final residual = 4.42802e-07, No Iterations 2
ExecutionTime = 39.15 s  ClockTime = 39 s

Courant Number mean: 0.327439 max: 0.707092
deltaT = 0.0166667
Time = 0.783333

PIMPLE: iteration 1
DILUPBiCGStab:  Solving for T, Initial residual = 0.00535073, Final residual = 9.3436e-07, No Iterations 3
DICPCG:  Solving for p_rgh, Initial residual = 0.00371047, Final residual = 3.48036e-05, No Iterations 223
time step continuity errors : sum local = 8.60217e-06, global = -8.5187e-06, cumulative = -0.000646114
DICPCG:  Solving for p_rgh, Initial residual = 0.00370412, Final residual = 9.18539e-09, No Iterations 246
time step continuity errors : sum local = 8.53873e-06, global = -8.53871e-06, cumulative = -0.000654653
DILUPBiCGStab:  Solving for epsilon, Initial residual = 0.000689923, Final residual = 2.44057e-07, No Iterations 2
DILUPBiCGStab:  Solving for k, Initial residual = 0.000833133, Final residual = 3.97574e-07, No Iterations 2
ExecutionTime = 39.6 s  ClockTime = 39 s

Courant Number mean: 0.327433 max: 0.707096
deltaT = 0.0166667
Time = 0.8

PIMPLE: iteration 1
DILUPBiCGStab:  Solving for T, Initial residual = 0.00521832, Final residual = 8.71396e-07, No Iterations 3
DICPCG:  Solving for p_rgh, Initial residual = 0.00372515, Final residual = 3.68365e-05, No Iterations 223
time step continuity errors : sum local = 8.64871e-06, global = -8.56034e-06, cumulative = -0.000663213
DICPCG:  Solving for p_rgh, Initial residual = 0.00372184, Final residual = 9.79513e-09, No Iterations 246
time step continuity errors : sum local = 8.58019e-06, global = -8.58017e-06, cumulative = -0.000671793
DILUPBiCGStab:  Solving for epsilon, Initial residual = 0.000639377, Final residual = 2.1661e-07, No Iterations 2
DILUPBiCGStab:  Solving for k, Initial residual = 0.000785147, Final residual = 3.57924e-07, No Iterations 2
ExecutionTime = 40.22 s  ClockTime = 40 s

    functionObjects::grad gradT writing field: gradT
surfaceFieldValue dTdn write:
    areaNormalIntegrate(walls) of gradT = 5523.73

Courant Number mean: 0.327427 max: 0.7071
deltaT = 0.0166667
Time = 0.816667

PIMPLE: iteration 1
DILUPBiCGStab:  Solving for T, Initial residual = 0.00509185, Final residual = 8.11284e-07, No Iterations 3
DICPCG:  Solving for p_rgh, Initial residual = 0.00373984, Final residual = 2.68705e-05, No Iterations 224
time step continuity errors : sum local = 8.66608e-06, global = -8.6016e-06, cumulative = -0.000680395
DICPCG:  Solving for p_rgh, Initial residual = 0.00372631, Final residual = 7.26947e-09, No Iterations 247
time step continuity errors : sum local = 8.62117e-06, global = -8.62116e-06, cumulative = -0.000689016
DILUPBiCGStab:  Solving for epsilon, Initial residual = 0.000593289, Final residual = 1.92972e-07, No Iterations 2
DILUPBiCGStab:  Solving for k, Initial residual = 0.000740675, Final residual = 3.23049e-07, No Iterations 2
ExecutionTime = 40.72 s  ClockTime = 41 s

Courant Number mean: 0.32742 max: 0.707103
deltaT = 0.0166667
Time = 0.833333

PIMPLE: iteration 1
DILUPBiCGStab:  Solving for T, Initial residual = 0.00497093, Final residual = 7.54745e-07, No Iterations 3
DICPCG:  Solving for p_rgh, Initial residual = 0.00375123, Final residual = 2.83853e-05, No Iterations 224
time step continuity errors : sum local = 8.71054e-06, global = -8.64241e-06, cumulative = -0.000697659
DICPCG:  Solving for p_rgh, Initial residual = 0.00374324, Final residual = 7.76385e-09, No Iterations 247
time step continuity errors : sum local = 8.66182e-06, global = -8.6618e-06, cumulative = -0.00070632
DILUPBiCGStab:  Solving for epsilon, Initial residual = 0.000551203, Final residual = 1.72704e-07, No Iterations 2
DILUPBiCGStab:  Solving for k, Initial residual = 0.000699407, Final residual = 2.92379e-07, No Iterations 2
ExecutionTime = 41.24 s  ClockTime = 41 s

Courant Number mean: 0.327414 max: 0.707107
deltaT = 0.0166667
Time = 0.85

PIMPLE: iteration 1
DILUPBiCGStab:  Solving for T, Initial residual = 0.00485517, Final residual = 7.02163e-07, No Iterations 3
DICPCG:  Solving for p_rgh, Initial residual = 0.00376552, Final residual = 2.97779e-05, No Iterations 224
time step continuity errors : sum local = 8.75436e-06, global = -8.68288e-06, cumulative = -0.000715003
DICPCG:  Solving for p_rgh, Initial residual = 0.00375996, Final residual = 8.19397e-09, No Iterations 247
time step continuity errors : sum local = 8.70213e-06, global = -8.70211e-06, cumulative = -0.000723705
DILUPBiCGStab:  Solving for epsilon, Initial residual = 0.000512714, Final residual = 1.55202e-07, No Iterations 2
DILUPBiCGStab:  Solving for k, Initial residual = 0.000661063, Final residual = 2.65352e-07, No Iterations 2
ExecutionTime = 41.72 s  ClockTime = 42 s

Courant Number mean: 0.327408 max: 0.707111
[...]
DICPCG:  Solving for p_rgh, Initial residual = 0.00331964, Final residual = 3.05059e-05, No Iterations 229
time step continuity errors : sum local = 8.04576e-06, global = -7.97227e-06, cumulative = -0.0149789
DICPCG:  Solving for p_rgh, Initial residual = 0.00334635, Final residual = 7.5955e-09, No Iterations 253
time step continuity errors : sum local = 7.97048e-06, global = -7.97046e-06, cumulative = -0.0149868
DILUPBiCGStab:  Solving for epsilon, Initial residual = 6.79944e-07, Final residual = 6.79944e-07, No Iterations 0
DILUPBiCGStab:  Solving for k, Initial residual = 1.00309e-06, Final residual = 3.41161e-07, No Iterations 1
ExecutionTime = 387.77 s  ClockTime = 388 s

Courant Number mean: 0.328368 max: 0.707203
deltaT = 0.0166667
Time = 11.6667

PIMPLE: iteration 1
DILUPBiCGStab:  Solving for T, Initial residual = 1.87034e-05, Final residual = 2.24406e-07, No Iterations 1
DICPCG:  Solving for p_rgh, Initial residual = 0.00332094, Final residual = 3.25453e-05, No Iterations 229
time step continuity errors : sum local = 8.04689e-06, global = -7.96849e-06, cumulative = -0.0149948
DICPCG:  Solving for p_rgh, Initial residual = 0.00334677, Final residual = 7.64241e-09, No Iterations 253
time step continuity errors : sum local = 7.96672e-06, global = -7.9667e-06, cumulative = -0.0150028
DILUPBiCGStab:  Solving for epsilon, Initial residual = 7.84084e-07, Final residual = 7.84084e-07, No Iterations 0
DILUPBiCGStab:  Solving for k, Initial residual = 7.31225e-07, Final residual = 7.31225e-07, No Iterations 0
ExecutionTime = 388.3 s  ClockTime = 388 s

Courant Number mean: 0.328369 max: 0.707203
deltaT = 0.0166667
Time = 11.6833

PIMPLE: iteration 1
DILUPBiCGStab:  Solving for T, Initial residual = 1.83482e-05, Final residual = 2.20843e-07, No Iterations 1
DICPCG:  Solving for p_rgh, Initial residual = 0.00331733, Final residual = 3.23506e-05, No Iterations 229
time step continuity errors : sum local = 8.04265e-06, global = -7.96472e-06, cumulative = -0.0150107
DICPCG:  Solving for p_rgh, Initial residual = 0.00334489, Final residual = 7.73606e-09, No Iterations 253
time step continuity errors : sum local = 7.96294e-06, global = -7.96292e-06, cumulative = -0.0150187
DILUPBiCGStab:  Solving for epsilon, Initial residual = 7.85844e-07, Final residual = 7.85844e-07, No Iterations 0
DILUPBiCGStab:  Solving for k, Initial residual = 7.40439e-07, Final residual = 7.40439e-07, No Iterations 0
ExecutionTime = 388.73 s  ClockTime = 389 s

Courant Number mean: 0.32837 max: 0.707203
deltaT = 0.0166667
Time = 11.7

PIMPLE: iteration 1
DILUPBiCGStab:  Solving for T, Initial residual = 1.7999e-05, Final residual = 2.17255e-07, No Iterations 1
DICPCG:  Solving for p_rgh, Initial residual = 0.00331522, Final residual = 3.12569e-05, No Iterations 229
time step continuity errors : sum local = 8.03624e-06, global = -7.96094e-06, cumulative = -0.0150267
DICPCG:  Solving for p_rgh, Initial residual = 0.00334194, Final residual = 7.92315e-09, No Iterations 253
time step continuity errors : sum local = 7.95915e-06, global = -7.95913e-06, cumulative = -0.0150346
DILUPBiCGStab:  Solving for epsilon, Initial residual = 7.92444e-07, Final residual = 7.92444e-07, No Iterations 0
DILUPBiCGStab:  Solving for k, Initial residual = 7.6223e-07, Final residual = 7.6223e-07, No Iterations 0
ExecutionTime = 389.48 s  ClockTime = 389 s

    functionObjects::grad gradT writing field: gradT
surfaceFieldValue dTdn write:
    areaNormalIntegrate(walls) of gradT = 5318.8

Courant Number mean: 0.328371 max: 0.707203
deltaT = 0.0166667
Time = 11.7167

PIMPLE: iteration 1
DILUPBiCGStab:  Solving for T, Initial residual = 1.76553e-05, Final residual = 2.13762e-07, No Iterations 1
DICPCG:  Solving for p_rgh, Initial residual = 0.00331327, Final residual = 3.06158e-05, No Iterations 229
time step continuity errors : sum local = 8.0309e-06, global = -7.95715e-06, cumulative = -0.0150426
DICPCG:  Solving for p_rgh, Initial residual = 0.00334001, Final residual = 7.50514e-09, No Iterations 253
time step continuity errors : sum local = 7.95538e-06, global = -7.95537e-06, cumulative = -0.0150505
DILUPBiCGStab:  Solving for epsilon, Initial residual = 8.00915e-07, Final residual = 8.00915e-07, No Iterations 0
DILUPBiCGStab:  Solving for k, Initial residual = 7.83947e-07, Final residual = 7.83947e-07, No Iterations 0
ExecutionTime = 390.17 s  ClockTime = 390 s

Courant Number mean: 0.328371 max: 0.707203
deltaT = 0.0166667
Time = 11.7333

PIMPLE: iteration 1
DILUPBiCGStab:  Solving for T, Initial residual = 1.73171e-05, Final residual = 2.1028e-07, No Iterations 1
DICPCG:  Solving for p_rgh, Initial residual = 0.00331181, Final residual = 3.25412e-05, No Iterations 229
time step continuity errors : sum local = 8.03178e-06, global = -7.95339e-06, cumulative = -0.0150585
DICPCG:  Solving for p_rgh, Initial residual = 0.00334031, Final residual = 7.57231e-09, No Iterations 253
time step continuity errors : sum local = 7.95163e-06, global = -7.95161e-06, cumulative = -0.0150664
DILUPBiCGStab:  Solving for epsilon, Initial residual = 8.10598e-07, Final residual = 8.10598e-07, No Iterations 0
DILUPBiCGStab:  Solving for k, Initial residual = 8.05621e-07, Final residual = 8.05621e-07, No Iterations 0
ExecutionTime = 390.69 s  ClockTime = 391 s

Courant Number mean: 0.328372 max: 0.707203
deltaT = 0.0166667
Time = 11.75

PIMPLE: iteration 1
DILUPBiCGStab:  Solving for T, Initial residual = 1.69845e-05, Final residual = 2.06865e-07, No Iterations 1
DICPCG:  Solving for p_rgh, Initial residual = 0.00331037, Final residual = 3.23675e-05, No Iterations 229
time step continuity errors : sum local = 8.02761e-06, global = -7.94964e-06, cumulative = -0.0150744
DICPCG:  Solving for p_rgh, Initial residual = 0.00333861, Final residual = 7.70471e-09, No Iterations 253
time step continuity errors : sum local = 7.94788e-06, global = -7.94786e-06, cumulative = -0.0150823
DILUPBiCGStab:  Solving for epsilon, Initial residual = 8.25626e-07, Final residual = 8.25626e-07, No Iterations 0
DILUPBiCGStab:  Solving for k, Initial residual = 8.27285e-07, Final residual = 8.27285e-07, No Iterations 0
ExecutionTime = 391.19 s  ClockTime = 391 s

Courant Number mean: 0.328373 max: 0.707202
deltaT = 0.0166667
Time = 11.7667

PIMPLE: iteration 1
DILUPBiCGStab:  Solving for T, Initial residual = 1.66574e-05, Final residual = 2.03505e-07, No Iterations 1
DICPCG:  Solving for p_rgh, Initial residual = 0.00330881, Final residual = 3.17387e-05, No Iterations 229
time step continuity errors : sum local = 8.02236e-06, global = -7.9459e-06, cumulative = -0.0150903
DICPCG:  Solving for p_rgh, Initial residual = 0.00333642, Final residual = 7.88395e-09, No Iterations 253
time step continuity errors : sum local = 7.94416e-06, global = -7.94414e-06, cumulative = -0.0150982
DILUPBiCGStab:  Solving for epsilon, Initial residual = 8.40943e-07, Final residual = 8.40943e-07, No Iterations 0
DILUPBiCGStab:  Solving for k, Initial residual = 8.49671e-07, Final residual = 8.49671e-07, No Iterations 0
ExecutionTime = 391.71 s  ClockTime = 392 s

Courant Number mean: 0.328374 max: 0.707202
deltaT = 0.0166667
Time = 11.7833

PIMPLE: iteration 1
DILUPBiCGStab:  Solving for T, Initial residual = 1.63357e-05, Final residual = 2.00192e-07, No Iterations 1
DICPCG:  Solving for p_rgh, Initial residual = 0.00330722, Final residual = 3.26337e-05, No Iterations 229
time step continuity errors : sum local = 8.02079e-06, global = -7.94218e-06, cumulative = -0.0151062
DICPCG:  Solving for p_rgh, Initial residual = 0.00333584, Final residual = 7.668e-09, No Iterations 253
time step continuity errors : sum local = 7.94044e-06, global = -7.94042e-06, cumulative = -0.0151141
DILUPBiCGStab:  Solving for epsilon, Initial residual = 8.56486e-07, Final residual = 8.56486e-07, No Iterations 0
DILUPBiCGStab:  Solving for k, Initial residual = 8.72067e-07, Final residual = 8.72067e-07, No Iterations 0
ExecutionTime = 392.22 s  ClockTime = 392 s

Courant Number mean: 0.328374 max: 0.707202
deltaT = 0.0166667
Time = 11.8

PIMPLE: iteration 1
DILUPBiCGStab:  Solving for T, Initial residual = 1.60196e-05, Final residual = 1.96945e-07, No Iterations 1
DICPCG:  Solving for p_rgh, Initial residual = 0.00330576, Final residual = 3.09275e-05, No Iterations 229
time step continuity errors : sum local = 8.01298e-06, global = -7.93848e-06, cumulative = -0.015122
DICPCG:  Solving for p_rgh, Initial residual = 0.00333233, Final residual = 7.57261e-09, No Iterations 253
time step continuity errors : sum local = 7.93673e-06, global = -7.93671e-06, cumulative = -0.01513
DILUPBiCGStab:  Solving for epsilon, Initial residual = 8.72172e-07, Final residual = 8.72172e-07, No Iterations 0
DILUPBiCGStab:  Solving for k, Initial residual = 8.94466e-07, Final residual = 8.94466e-07, No Iterations 0
ExecutionTime = 392.9 s  ClockTime = 393 s

    functionObjects::grad gradT writing field: gradT
surfaceFieldValue dTdn write:
    areaNormalIntegrate(walls) of gradT = 5318.72

Courant Number mean: 0.328375 max: 0.707202
deltaT = 0.0166667
Time = 11.8167

PIMPLE: iteration 1
DILUPBiCGStab:  Solving for T, Initial residual = 1.57088e-05, Final residual = 1.93774e-07, No Iterations 1
DICPCG:  Solving for p_rgh, Initial residual = 0.00330389, Final residual = 3.01371e-05, No Iterations 229
time step continuity errors : sum local = 8.00736e-06, global = -7.93477e-06, cumulative = -0.0151379
DICPCG:  Solving for p_rgh, Initial residual = 0.00333021, Final residual = 7.4725e-09, No Iterations 253
time step continuity errors : sum local = 7.93303e-06, global = -7.93301e-06, cumulative = -0.0151459
DILUPBiCGStab:  Solving for epsilon, Initial residual = 8.87815e-07, Final residual = 8.87815e-07, No Iterations 0
DILUPBiCGStab:  Solving for k, Initial residual = 9.16754e-07, Final residual = 9.16754e-07, No Iterations 0
ExecutionTime = 393.42 s  ClockTime = 393 s

Courant Number mean: 0.328376 max: 0.707202
deltaT = 0.0166667
Time = 11.8333

PIMPLE: iteration 1
DILUPBiCGStab:  Solving for T, Initial residual = 1.54033e-05, Final residual = 1.90632e-07, No Iterations 1
DICPCG:  Solving for p_rgh, Initial residual = 0.00330244, Final residual = 3.24758e-05, No Iterations 229
time step continuity errors : sum local = 8.00931e-06, global = -7.93108e-06, cumulative = -0.0151538
DICPCG:  Solving for p_rgh, Initial residual = 0.00333103, Final residual = 7.36811e-09, No Iterations 253
time step continuity errors : sum local = 7.92935e-06, global = -7.92933e-06, cumulative = -0.0151617
DILUPBiCGStab:  Solving for epsilon, Initial residual = 9.035e-07, Final residual = 9.035e-07, No Iterations 0
DILUPBiCGStab:  Solving for k, Initial residual = 9.39001e-07, Final residual = 9.39001e-07, No Iterations 0
ExecutionTime = 393.86 s  ClockTime = 394 s

Courant Number mean: 0.328376 max: 0.707201
deltaT = 0.0166667
Time = 11.85

PIMPLE: iteration 1
DILUPBiCGStab:  Solving for T, Initial residual = 1.51031e-05, Final residual = 1.87554e-07, No Iterations 1
DICPCG:  Solving for p_rgh, Initial residual = 0.0033011, Final residual = 3.02821e-05, No Iterations 229
time step continuity errors : sum local = 8.00035e-06, global = -7.9274e-06, cumulative = -0.0151696
DICPCG:  Solving for p_rgh, Initial residual = 0.00332743, Final residual = 7.52709e-09, No Iterations 253
time step continuity errors : sum local = 7.92567e-06, global = -7.92565e-06, cumulative = -0.0151776
DILUPBiCGStab:  Solving for epsilon, Initial residual = 9.19241e-07, Final residual = 9.19241e-07, No Iterations 0
DILUPBiCGStab:  Solving for k, Initial residual = 9.61248e-07, Final residual = 9.61248e-07, No Iterations 0
ExecutionTime = 394.41 s  ClockTime = 394 s

Courant Number mean: 0.328377 max: 0.707201
deltaT = 0.0166667
Time = 11.8667

PIMPLE: iteration 1
DILUPBiCGStab:  Solving for T, Initial residual = 1.48081e-05, Final residual = 1.84553e-07, No Iterations 1
DICPCG:  Solving for p_rgh, Initial residual = 0.00329946, Final residual = 3.18435e-05, No Iterations 229
time step continuity errors : sum local = 8.00043e-06, global = -7.92373e-06, cumulative = -0.0151855
DICPCG:  Solving for p_rgh, Initial residual = 0.00332739, Final residual = 7.5654e-09, No Iterations 253
time step continuity errors : sum local = 7.922e-06, global = -7.92198e-06, cumulative = -0.0151934
DILUPBiCGStab:  Solving for epsilon, Initial residual = 9.34989e-07, Final residual = 9.34989e-07, No Iterations 0
DILUPBiCGStab:  Solving for k, Initial residual = 9.83455e-07, Final residual = 9.83455e-07, No Iterations 0
ExecutionTime = 394.89 s  ClockTime = 395 s

Courant Number mean: 0.328378 max: 0.707201
deltaT = 0.0166667
Time = 11.8833

PIMPLE: iteration 1
DILUPBiCGStab:  Solving for T, Initial residual = 1.45182e-05, Final residual = 1.81588e-07, No Iterations 1
DICPCG:  Solving for p_rgh, Initial residual = 0.00329805, Final residual = 3.09343e-05, No Iterations 229
time step continuity errors : sum local = 7.99457e-06, global = -7.92006e-06, cumulative = -0.0152013
DICPCG:  Solving for p_rgh, Initial residual = 0.00332505, Final residual = 7.6505e-09, No Iterations 253
time step continuity errors : sum local = 7.91835e-06, global = -7.91833e-06, cumulative = -0.0152093
DILUPBiCGStab:  Solving for epsilon, Initial residual = 9.50739e-07, Final residual = 9.50739e-07, No Iterations 0
DILUPBiCGStab:  Solving for k, Initial residual = 1.00564e-06, Final residual = 3.39513e-07, No Iterations 1
ExecutionTime = 395.39 s  ClockTime = 395 s

Courant Number mean: 0.328379 max: 0.707201
deltaT = 0.0166667
Time = 11.9

PIMPLE: iteration 1
DILUPBiCGStab:  Solving for T, Initial residual = 1.41916e-05, Final residual = 1.74087e-07, No Iterations 1
DICPCG:  Solving for p_rgh, Initial residual = 0.00330022, Final residual = 3.11966e-05, No Iterations 229
time step continuity errors : sum local = 7.99156e-06, global = -7.91642e-06, cumulative = -0.0152172
DICPCG:  Solving for p_rgh, Initial residual = 0.00332362, Final residual = 7.80849e-09, No Iterations 253
time step continuity errors : sum local = 7.91471e-06, global = -7.9147e-06, cumulative = -0.0152251
DILUPBiCGStab:  Solving for epsilon, Initial residual = 1.20735e-06, Final residual = 3.59419e-07, No Iterations 1
DILUPBiCGStab:  Solving for k, Initial residual = 7.14616e-07, Final residual = 7.14616e-07, No Iterations 0
ExecutionTime = 396.08 s  ClockTime = 396 s

    functionObjects::grad gradT writing field: gradT
surfaceFieldValue dTdn write:
    areaNormalIntegrate(walls) of gradT = 5318.65

Courant Number mean: 0.328379 max: 0.707201
deltaT = 0.0166667
Time = 11.9167

PIMPLE: iteration 1
DILUPBiCGStab:  Solving for T, Initial residual = 1.40194e-05, Final residual = 1.7672e-07, No Iterations 1
DICPCG:  Solving for p_rgh, Initial residual = 0.00329848, Final residual = 3.23019e-05, No Iterations 229
time step continuity errors : sum local = 7.99058e-06, global = -7.91278e-06, cumulative = -0.015233
DICPCG:  Solving for p_rgh, Initial residual = 0.00332333, Final residual = 7.64522e-09, No Iterations 253
time step continuity errors : sum local = 7.91107e-06, global = -7.91105e-06, cumulative = -0.0152409
DILUPBiCGStab:  Solving for epsilon, Initial residual = 7.71843e-07, Final residual = 7.71843e-07, No Iterations 0
DILUPBiCGStab:  Solving for k, Initial residual = 7.1814e-07, Final residual = 7.1814e-07, No Iterations 0
ExecutionTime = 396.62 s  ClockTime = 397 s

Courant Number mean: 0.32838 max: 0.707201
deltaT = 0.0166667
Time = 11.9333

PIMPLE: iteration 1
DILUPBiCGStab:  Solving for T, Initial residual = 1.37379e-05, Final residual = 1.73729e-07, No Iterations 1
DICPCG:  Solving for p_rgh, Initial residual = 0.00329344, Final residual = 3.12304e-05, No Iterations 229
time step continuity errors : sum local = 7.98436e-06, global = -7.90914e-06, cumulative = -0.0152488
DICPCG:  Solving for p_rgh, Initial residual = 0.0033205, Final residual = 7.83018e-09, No Iterations 253
time step continuity errors : sum local = 7.90742e-06, global = -7.9074e-06, cumulative = -0.0152567
DILUPBiCGStab:  Solving for epsilon, Initial residual = 7.77137e-07, Final residual = 7.77137e-07, No Iterations 0
DILUPBiCGStab:  Solving for k, Initial residual = 7.3868e-07, Final residual = 7.3868e-07, No Iterations 0
ExecutionTime = 397.1 s  ClockTime = 397 s

Courant Number mean: 0.328381 max: 0.7072
deltaT = 0.0166667
Time = 11.95

PIMPLE: iteration 1
DILUPBiCGStab:  Solving for T, Initial residual = 1.34637e-05, Final residual = 1.70806e-07, No Iterations 1
DICPCG:  Solving for p_rgh, Initial residual = 0.00329172, Final residual = 3.20468e-05, No Iterations 229
time step continuity errors : sum local = 7.98269e-06, global = -7.9055e-06, cumulative = -0.0152646
DICPCG:  Solving for p_rgh, Initial residual = 0.0033201, Final residual = 7.67953e-09, No Iterations 253
time step continuity errors : sum local = 7.90381e-06, global = -7.90379e-06, cumulative = -0.0152725
DILUPBiCGStab:  Solving for epsilon, Initial residual = 7.82982e-07, Final residual = 7.82982e-07, No Iterations 0
DILUPBiCGStab:  Solving for k, Initial residual = 7.5916e-07, Final residual = 7.5916e-07, No Iterations 0
ExecutionTime = 397.59 s  ClockTime = 398 s

Courant Number mean: 0.328381 max: 0.7072
deltaT = 0.0166667
Time = 11.9667

PIMPLE: iteration 1
DILUPBiCGStab:  Solving for T, Initial residual = 1.31951e-05, Final residual = 1.67885e-07, No Iterations 1
DICPCG:  Solving for p_rgh, Initial residual = 0.00329052, Final residual = 3.24123e-05, No Iterations 229
time step continuity errors : sum local = 7.97997e-06, global = -7.9019e-06, cumulative = -0.0152804
DICPCG:  Solving for p_rgh, Initial residual = 0.00331897, Final residual = 7.66072e-09, No Iterations 253
time step continuity errors : sum local = 7.90022e-06, global = -7.9002e-06, cumulative = -0.0152883
DILUPBiCGStab:  Solving for epsilon, Initial residual = 7.88566e-07, Final residual = 7.88566e-07, No Iterations 0
DILUPBiCGStab:  Solving for k, Initial residual = 7.79617e-07, Final residual = 7.79617e-07, No Iterations 0
ExecutionTime = 398.09 s  ClockTime = 398 s

Courant Number mean: 0.328382 max: 0.7072
deltaT = 0.0166667
Time = 11.9833

PIMPLE: iteration 1
DILUPBiCGStab:  Solving for T, Initial residual = 1.29321e-05, Final residual = 1.65053e-07, No Iterations 1
DICPCG:  Solving for p_rgh, Initial residual = 0.00328908, Final residual = 3.1164e-05, No Iterations 229
time step continuity errors : sum local = 7.97337e-06, global = -7.89831e-06, cumulative = -0.0152962
DICPCG:  Solving for p_rgh, Initial residual = 0.00331603, Final residual = 7.88903e-09, No Iterations 253
time step continuity errors : sum local = 7.89661e-06, global = -7.89659e-06, cumulative = -0.0153041
DILUPBiCGStab:  Solving for epsilon, Initial residual = 7.94411e-07, Final residual = 7.94411e-07, No Iterations 0
DILUPBiCGStab:  Solving for k, Initial residual = 8.00429e-07, Final residual = 8.00429e-07, No Iterations 0
ExecutionTime = 398.61 s  ClockTime = 399 s

Courant Number mean: 0.328383 max: 0.7072
deltaT = 0.0166667
Time = 12

PIMPLE: iteration 1
DILUPBiCGStab:  Solving for T, Initial residual = 1.26741e-05, Final residual = 1.62331e-07, No Iterations 1
DICPCG:  Solving for p_rgh, Initial residual = 0.00328733, Final residual = 3.20666e-05, No Iterations 229
time step continuity errors : sum local = 7.97195e-06, global = -7.89471e-06, cumulative = -0.015312
DICPCG:  Solving for p_rgh, Initial residual = 0.00331566, Final residual = 7.42498e-09, No Iterations 253
time step continuity errors : sum local = 7.89304e-06, global = -7.89302e-06, cumulative = -0.0153199
DILUPBiCGStab:  Solving for epsilon, Initial residual = 8.00134e-07, Final residual = 8.00134e-07, No Iterations 0
DILUPBiCGStab:  Solving for k, Initial residual = 8.2167e-07, Final residual = 8.2167e-07, No Iterations 0
ExecutionTime = 399.32 s  ClockTime = 399 s

    functionObjects::grad gradT writing field: gradT
surfaceFieldValue dTdn write:
    areaNormalIntegrate(walls) of gradT = 5318.59

End

